MODEL 1
REMARK VINA RESULT:      -7.5      0.000      0.000
REMARK  Name = 
REMARK  15 active torsions:
REMARK  status: ('A' for Active; 'I' for Inactive)
REMARK    1  A    between atoms: C_1  and  O_2
REMARK    2  A    between atoms: O_2  and  C_3
REMARK    3  A    between atoms: C_5  and  N_6
REMARK    4  A    between atoms: N_9  and  C_10
REMARK    5  A    between atoms: C_10  and  C_11
REMARK    6  A    between atoms: C_10  and  C_12
REMARK    7  A    between atoms: C_20  and  O_21
REMARK    8  A    between atoms: O_21  and  C_22
REMARK    9  A    between atoms: C_22  and  C_23
REMARK   10  A    between atoms: C_23  and  N_24
REMARK   11  A    between atoms: C_25  and  O_27
REMARK   12  A    between atoms: O_27  and  C_28
REMARK   13  A    between atoms: C_28  and  C_29
REMARK   14  A    between atoms: C_28  and  C_30
REMARK   15  A    between atoms: C_28  and  C_31
REMARK                            x       y       z     vdW  Elec       q    Type
REMARK                         _______ _______ _______ _____ _____    ______ ____
ROOT
ATOM      1  C   UNL     1       0.234  11.687  21.215  0.00  0.00    +0.000 A 
ATOM      2  C   UNL     1       0.962  10.547  20.862  0.00  0.00    +0.000 A 
ATOM      3  C   UNL     1       0.924   9.376  21.627  0.00  0.00    +0.000 A 
ATOM      4  C   UNL     1       0.092   9.325  22.745  0.00  0.00    +0.000 A 
ATOM      5  C   UNL     1      -0.690  10.436  23.075  0.00  0.00    +0.000 A 
ATOM      6  C   UNL     1      -0.652  11.601  22.296  0.00  0.00    +0.000 A 
ENDROOT
BRANCH   3   7
ATOM      7  N   UNL     1       1.691   8.237  21.284  0.00  0.00    +0.000 N 
ATOM      8  C   UNL     1       1.902   7.791  19.994  0.00  0.00    +0.000 C 
ATOM      9  O   UNL     1       1.578   8.378  18.968  0.00  0.00    +0.000 OA
ATOM     10  N   UNL     1       2.580   6.591  19.965  0.00  0.00    +0.000 N 
ATOM     11  H   UNL     1       2.309   7.865  21.989  0.00  0.00    +0.000 HD
ATOM     12  H   UNL     1       2.404   5.979  20.744  0.00  0.00    +0.000 HD
BRANCH  10  13
ATOM     13  C   UNL     1       2.828   5.957  18.674  0.00  0.00    +0.000 C 
ATOM     14  C   UNL     1       4.280   6.151  18.245  0.00  0.00    +0.000 C 
BRANCH  13  15
ATOM     15  C   UNL     1       2.436   4.487  18.683  0.00  0.00    +0.000 A 
ATOM     16  C   UNL     1       1.286   4.081  19.379  0.00  0.00    +0.000 A 
ATOM     17  C   UNL     1       0.882   2.743  19.376  0.00  0.00    +0.000 A 
ATOM     18  C   UNL     1       1.629   1.792  18.688  0.00  0.00    +0.000 A 
ATOM     19  C   UNL     1       2.780   2.175  18.004  0.00  0.00    +0.000 A 
ATOM     20  C   UNL     1       3.183   3.513  18.000  0.00  0.00    +0.000 A 
ENDBRANCH  13  15
ENDBRANCH  10  13
ENDBRANCH   3   7
BRANCH   1  22
ATOM     21  C   UNL     1       0.986  12.907  19.276  0.00  0.00    +0.000 C 
ATOM     22  O   UNL     1       0.323  12.870  20.538  0.00  0.00    +0.000 OA
ENDBRANCH   1  22
BRANCH   6  23
ATOM     23  O   UNL     1      -1.532  12.567  22.709  0.00  0.00    +0.000 OA
BRANCH  23  24
ATOM     24  C   UNL     1      -2.163  13.373  21.705  0.00  0.00    +0.000 C 
BRANCH  24  25
ATOM     25  C   UNL     1      -3.256  12.650  20.902  0.00  0.00    +0.000 C 
BRANCH  25  26
ATOM     26  N   UNL     1      -2.849  12.350  19.547  0.00  0.00    +0.000 N 
ATOM     27  C   UNL     1      -3.764  11.938  18.620  0.00  0.00    +0.000 C 
ATOM     28  O   UNL     1      -4.949  11.771  18.863  0.00  0.00    +0.000 OA
ATOM     29  H   UNL     1      -1.905  12.515  19.231  0.00  0.00    +0.000 HD
BRANCH  27  30
ATOM     30  O   UNL     1      -3.155  11.745  17.424  0.00  0.00    +0.000 OA
BRANCH  30  31
ATOM     31  C   UNL     1      -2.697  10.409  17.082  0.00  0.00    +0.000 C 
ATOM     32  C   UNL     1      -3.639   9.337  17.645  0.00  0.00    +0.000 C 
ATOM     33  C   UNL     1      -2.736  10.315  15.547  0.00  0.00    +0.000 C 
ATOM     34  C   UNL     1      -1.243  10.209  17.529  0.00  0.00    +0.000 C 
ENDBRANCH  30  31
ENDBRANCH  27  30
ENDBRANCH  25  26
ENDBRANCH  24  25
ENDBRANCH  23  24
ENDBRANCH   6  23
TORSDOF 10
ENDMDL
MODEL 2
REMARK VINA RESULT:      -7.4      2.144      3.656
REMARK  Name = 
REMARK  15 active torsions:
REMARK  status: ('A' for Active; 'I' for Inactive)
REMARK    1  A    between atoms: C_1  and  O_2
REMARK    2  A    between atoms: O_2  and  C_3
REMARK    3  A    between atoms: C_5  and  N_6
REMARK    4  A    between atoms: N_9  and  C_10
REMARK    5  A    between atoms: C_10  and  C_11
REMARK    6  A    between atoms: C_10  and  C_12
REMARK    7  A    between atoms: C_20  and  O_21
REMARK    8  A    between atoms: O_21  and  C_22
REMARK    9  A    between atoms: C_22  and  C_23
REMARK   10  A    between atoms: C_23  and  N_24
REMARK   11  A    between atoms: C_25  and  O_27
REMARK   12  A    between atoms: O_27  and  C_28
REMARK   13  A    between atoms: C_28  and  C_29
REMARK   14  A    between atoms: C_28  and  C_30
REMARK   15  A    between atoms: C_28  and  C_31
REMARK                            x       y       z     vdW  Elec       q    Type
REMARK                         _______ _______ _______ _____ _____    ______ ____
ROOT
ATOM      1  C   UNL     1       1.186   9.954  20.656  0.00  0.00    +0.000 A 
ATOM      2  C   UNL     1       1.377   8.640  20.222  0.00  0.00    +0.000 A 
ATOM      3  C   UNL     1       1.667   8.333  18.888  0.00  0.00    +0.000 A 
ATOM      4  C   UNL     1       1.825   9.374  17.974  0.00  0.00    +0.000 A 
ATOM      5  C   UNL     1       1.699  10.698  18.406  0.00  0.00    +0.000 A 
ATOM      6  C   UNL     1       1.417  10.995  19.747  0.00  0.00    +0.000 A 
ENDROOT
BRANCH   3   7
ATOM      7  N   UNL     1       1.825   6.997  18.447  0.00  0.00    +0.000 N 
ATOM      8  C   UNL     1       2.904   6.192  18.753  0.00  0.00    +0.000 C 
ATOM      9  O   UNL     1       3.800   6.459  19.543  0.00  0.00    +0.000 OA
ATOM     10  N   UNL     1       2.854   4.985  18.087  0.00  0.00    +0.000 N 
ATOM     11  H   UNL     1       1.006   6.527  18.090  0.00  0.00    +0.000 HD
ATOM     12  H   UNL     1       2.417   5.011  17.182  0.00  0.00    +0.000 HD
BRANCH  10  13
ATOM     13  C   UNL     1       3.956   4.044  18.258  0.00  0.00    +0.000 C 
ATOM     14  C   UNL     1       3.448   2.605  18.243  0.00  0.00    +0.000 C 
BRANCH  13  15
ATOM     15  C   UNL     1       5.051   4.264  17.225  0.00  0.00    +0.000 A 
ATOM     16  C   UNL     1       6.362   4.534  17.653  0.00  0.00    +0.000 A 
ATOM     17  C   UNL     1       7.396   4.707  16.728  0.00  0.00    +0.000 A 
ATOM     18  C   UNL     1       7.132   4.622  15.365  0.00  0.00    +0.000 A 
ATOM     19  C   UNL     1       5.835   4.368  14.923  0.00  0.00    +0.000 A 
ATOM     20  C   UNL     1       4.800   4.190  15.846  0.00  0.00    +0.000 A 
ENDBRANCH  13  15
ENDBRANCH  10  13
ENDBRANCH   3   7
BRANCH   1  22
ATOM     21  C   UNL     1      -0.553  10.570  22.208  0.00  0.00    +0.000 C 
ATOM     22  O   UNL     1       0.813  10.274  21.931  0.00  0.00    +0.000 OA
ENDBRANCH   1  22
BRANCH   6  23
ATOM     23  O   UNL     1       1.401  12.337  20.021  0.00  0.00    +0.000 OA
BRANCH  23  24
ATOM     24  C   UNL     1       1.165  13.241  18.933  0.00  0.00    +0.000 C 
BRANCH  24  25
ATOM     25  C   UNL     1      -0.304  13.655  18.756  0.00  0.00    +0.000 C 
BRANCH  25  26
ATOM     26  N   UNL     1      -0.939  12.998  17.635  0.00  0.00    +0.000 N 
ATOM     27  C   UNL     1      -1.712  11.888  17.825  0.00  0.00    +0.000 C 
ATOM     28  O   UNL     1      -1.897  11.367  18.914  0.00  0.00    +0.000 OA
ATOM     29  H   UNL     1      -0.898  13.385  16.704  0.00  0.00    +0.000 HD
BRANCH  27  30
ATOM     30  O   UNL     1      -2.219  11.468  16.640  0.00  0.00    +0.000 OA
BRANCH  30  31
ATOM     31  C   UNL     1      -3.490  10.766  16.633  0.00  0.00    +0.000 C 
ATOM     32  C   UNL     1      -4.643  11.700  17.024  0.00  0.00    +0.000 C 
ATOM     33  C   UNL     1      -3.726  10.303  15.185  0.00  0.00    +0.000 C 
ATOM     34  C   UNL     1      -3.419   9.517  17.520  0.00  0.00    +0.000 C 
ENDBRANCH  30  31
ENDBRANCH  27  30
ENDBRANCH  25  26
ENDBRANCH  24  25
ENDBRANCH  23  24
ENDBRANCH   6  23
TORSDOF 10
ENDMDL
MODEL 3
REMARK VINA RESULT:      -7.4      3.179      9.481
REMARK  Name = 
REMARK  15 active torsions:
REMARK  status: ('A' for Active; 'I' for Inactive)
REMARK    1  A    between atoms: C_1  and  O_2
REMARK    2  A    between atoms: O_2  and  C_3
REMARK    3  A    between atoms: C_5  and  N_6
REMARK    4  A    between atoms: N_9  and  C_10
REMARK    5  A    between atoms: C_10  and  C_11
REMARK    6  A    between atoms: C_10  and  C_12
REMARK    7  A    between atoms: C_20  and  O_21
REMARK    8  A    between atoms: O_21  and  C_22
REMARK    9  A    between atoms: C_22  and  C_23
REMARK   10  A    between atoms: C_23  and  N_24
REMARK   11  A    between atoms: C_25  and  O_27
REMARK   12  A    between atoms: O_27  and  C_28
REMARK   13  A    between atoms: C_28  and  C_29
REMARK   14  A    between atoms: C_28  and  C_30
REMARK   15  A    between atoms: C_28  and  C_31
REMARK                            x       y       z     vdW  Elec       q    Type
REMARK                         _______ _______ _______ _____ _____    ______ ____
ROOT
ATOM      1  C   UNL     1       1.335   4.435  20.217  0.00  0.00    +0.000 A 
ATOM      2  C   UNL     1       1.342   5.702  20.806  0.00  0.00    +0.000 A 
ATOM      3  C   UNL     1       1.727   6.847  20.100  0.00  0.00    +0.000 A 
ATOM      4  C   UNL     1       2.063   6.728  18.752  0.00  0.00    +0.000 A 
ATOM      5  C   UNL     1       2.000   5.476  18.131  0.00  0.00    +0.000 A 
ATOM      6  C   UNL     1       1.603   4.337  18.846  0.00  0.00    +0.000 A 
ENDROOT
BRANCH   3   7
ATOM      7  N   UNL     1       1.766   8.123  20.712  0.00  0.00    +0.000 N 
ATOM      8  C   UNL     1       0.670   8.946  20.882  0.00  0.00    +0.000 C 
ATOM      9  O   UNL     1      -0.496   8.646  20.657  0.00  0.00    +0.000 OA
ATOM     10  N   UNL     1       1.022  10.178  21.392  0.00  0.00    +0.000 N 
ATOM     11  H   UNL     1       2.581   8.348  21.262  0.00  0.00    +0.000 HD
ATOM     12  H   UNL     1       1.932  10.510  21.123  0.00  0.00    +0.000 HD
BRANCH  10  13
ATOM     13  C   UNL     1      -0.018  11.184  21.574  0.00  0.00    +0.000 C 
ATOM     14  C   UNL     1      -0.734  10.989  22.908  0.00  0.00    +0.000 C 
BRANCH  13  15
ATOM     15  C   UNL     1       0.530  12.596  21.431  0.00  0.00    +0.000 A 
ATOM     16  C   UNL     1      -0.143  13.665  22.047  0.00  0.00    +0.000 A 
ATOM     17  C   UNL     1       0.355  14.968  21.962  0.00  0.00    +0.000 A 
ATOM     18  C   UNL     1       1.525  15.221  21.253  0.00  0.00    +0.000 A 
ATOM     19  C   UNL     1       2.197  14.174  20.625  0.00  0.00    +0.000 A 
ATOM     20  C   UNL     1       1.704  12.870  20.713  0.00  0.00    +0.000 A 
ENDBRANCH  13  15
ENDBRANCH  10  13
ENDBRANCH   3   7
BRANCH   1  22
ATOM     21  C   UNL     1       2.064   2.683  21.705  0.00  0.00    +0.000 C 
ATOM     22  O   UNL     1       1.051   3.291  20.908  0.00  0.00    +0.000 OA
ENDBRANCH   1  22
BRANCH   6  23
ATOM     23  O   UNL     1       1.522   3.207  18.076  0.00  0.00    +0.000 OA
BRANCH  23  24
ATOM     24  C   UNL     1       2.740   2.671  17.540  0.00  0.00    +0.000 C 
BRANCH  24  25
ATOM     25  C   UNL     1       3.909   2.628  18.537  0.00  0.00    +0.000 C 
BRANCH  25  26
ATOM     26  N   UNL     1       5.101   3.269  18.028  0.00  0.00    +0.000 N 
ATOM     27  C   UNL     1       5.579   4.411  18.606  0.00  0.00    +0.000 C 
ATOM     28  O   UNL     1       5.039   4.973  19.546  0.00  0.00    +0.000 OA
ATOM     29  H   UNL     1       5.654   2.849  17.295  0.00  0.00    +0.000 HD
BRANCH  27  30
ATOM     30  O   UNL     1       6.713   4.808  17.979  0.00  0.00    +0.000 OA
BRANCH  30  31
ATOM     31  C   UNL     1       6.617   5.811  16.932  0.00  0.00    +0.000 C 
ATOM     32  C   UNL     1       5.187   6.353  16.812  0.00  0.00    +0.000 C 
ATOM     33  C   UNL     1       7.530   6.974  17.358  0.00  0.00    +0.000 C 
ATOM     34  C   UNL     1       7.150   5.256  15.605  0.00  0.00    +0.000 C 
ENDBRANCH  30  31
ENDBRANCH  27  30
ENDBRANCH  25  26
ENDBRANCH  24  25
ENDBRANCH  23  24
ENDBRANCH   6  23
TORSDOF 10
ENDMDL
MODEL 4
REMARK VINA RESULT:      -7.2      6.373      8.661
REMARK  Name = 
REMARK  15 active torsions:
REMARK  status: ('A' for Active; 'I' for Inactive)
REMARK    1  A    between atoms: C_1  and  O_2
REMARK    2  A    between atoms: O_2  and  C_3
REMARK    3  A    between atoms: C_5  and  N_6
REMARK    4  A    between atoms: N_9  and  C_10
REMARK    5  A    between atoms: C_10  and  C_11
REMARK    6  A    between atoms: C_10  and  C_12
REMARK    7  A    between atoms: C_20  and  O_21
REMARK    8  A    between atoms: O_21  and  C_22
REMARK    9  A    between atoms: C_22  and  C_23
REMARK   10  A    between atoms: C_23  and  N_24
REMARK   11  A    between atoms: C_25  and  O_27
REMARK   12  A    between atoms: O_27  and  C_28
REMARK   13  A    between atoms: C_28  and  C_29
REMARK   14  A    between atoms: C_28  and  C_30
REMARK   15  A    between atoms: C_28  and  C_31
REMARK                            x       y       z     vdW  Elec       q    Type
REMARK                         _______ _______ _______ _____ _____    ______ ____
ROOT
ATOM      1  C   UNL     1       9.691  12.247  18.219  0.00  0.00    +0.000 A 
ATOM      2  C   UNL     1       9.417  10.880  18.127  0.00  0.00    +0.000 A 
ATOM      3  C   UNL     1       9.173  10.094  19.258  0.00  0.00    +0.000 A 
ATOM      4  C   UNL     1       9.147  10.703  20.512  0.00  0.00    +0.000 A 
ATOM      5  C   UNL     1       9.357  12.082  20.615  0.00  0.00    +0.000 A 
ATOM      6  C   UNL     1       9.592  12.862  19.474  0.00  0.00    +0.000 A 
ENDROOT
BRANCH   3   7
ATOM      7  N   UNL     1       8.931   8.703  19.161  0.00  0.00    +0.000 N 
ATOM      8  C   UNL     1       8.122   8.111  18.210  0.00  0.00    +0.000 C 
ATOM      9  O   UNL     1       7.614   8.672  17.248  0.00  0.00    +0.000 OA
ATOM     10  N   UNL     1       7.969   6.758  18.430  0.00  0.00    +0.000 N 
ATOM     11  H   UNL     1       9.558   8.087  19.656  0.00  0.00    +0.000 HD
ATOM     12  H   UNL     1       7.995   6.474  19.395  0.00  0.00    +0.000 HD
BRANCH  10  13
ATOM     13  C   UNL     1       7.093   5.998  17.545  0.00  0.00    +0.000 C 
ATOM     14  C   UNL     1       7.602   4.569  17.375  0.00  0.00    +0.000 C 
BRANCH  13  15
ATOM     15  C   UNL     1       5.648   6.027  18.019  0.00  0.00    +0.000 A 
ATOM     16  C   UNL     1       5.270   5.262  19.135  0.00  0.00    +0.000 A 
ATOM     17  C   UNL     1       3.958   5.294  19.614  0.00  0.00    +0.000 A 
ATOM     18  C   UNL     1       3.004   6.082  18.978  0.00  0.00    +0.000 A 
ATOM     19  C   UNL     1       3.358   6.836  17.861  0.00  0.00    +0.000 A 
ATOM     20  C   UNL     1       4.671   6.810  17.383  0.00  0.00    +0.000 A 
ENDBRANCH  13  15
ENDBRANCH  10  13
ENDBRANCH   3   7
BRANCH   1  22
ATOM     21  C   UNL     1      11.394  13.289  16.867  0.00  0.00    +0.000 C 
ATOM     22  O   UNL     1      10.022  13.018  17.140  0.00  0.00    +0.000 OA
ENDBRANCH   1  22
BRANCH   6  23
ATOM     23  O   UNL     1       9.702  14.202  19.738  0.00  0.00    +0.000 OA
BRANCH  23  24
ATOM     24  C   UNL     1       8.497  14.936  19.993  0.00  0.00    +0.000 C 
BRANCH  24  25
ATOM     25  C   UNL     1       8.319  16.191  19.123  0.00  0.00    +0.000 C 
BRANCH  25  26
ATOM     26  N   UNL     1       6.981  16.315  18.588  0.00  0.00    +0.000 N 
ATOM     27  C   UNL     1       6.127  17.269  19.064  0.00  0.00    +0.000 C 
ATOM     28  O   UNL     1       6.408  18.043  19.966  0.00  0.00    +0.000 OA
ATOM     29  H   UNL     1       6.675  15.765  17.800  0.00  0.00    +0.000 HD
BRANCH  27  30
ATOM     30  O   UNL     1       4.949  17.210  18.396  0.00  0.00    +0.000 OA
BRANCH  30  31
ATOM     31  C   UNL     1       3.916  16.311  18.880  0.00  0.00    +0.000 C 
ATOM     32  C   UNL     1       2.519  16.921  18.698  0.00  0.00    +0.000 C 
ATOM     33  C   UNL     1       3.996  15.044  18.010  0.00  0.00    +0.000 C 
ATOM     34  C   UNL     1       4.195  15.903  20.332  0.00  0.00    +0.000 C 
ENDBRANCH  30  31
ENDBRANCH  27  30
ENDBRANCH  25  26
ENDBRANCH  24  25
ENDBRANCH  23  24
ENDBRANCH   6  23
TORSDOF 10
ENDMDL
MODEL 5
REMARK VINA RESULT:      -7.1      3.378      5.674
REMARK  Name = 
REMARK  15 active torsions:
REMARK  status: ('A' for Active; 'I' for Inactive)
REMARK    1  A    between atoms: C_1  and  O_2
REMARK    2  A    between atoms: O_2  and  C_3
REMARK    3  A    between atoms: C_5  and  N_6
REMARK    4  A    between atoms: N_9  and  C_10
REMARK    5  A    between atoms: C_10  and  C_11
REMARK    6  A    between atoms: C_10  and  C_12
REMARK    7  A    between atoms: C_20  and  O_21
REMARK    8  A    between atoms: O_21  and  C_22
REMARK    9  A    between atoms: C_22  and  C_23
REMARK   10  A    between atoms: C_23  and  N_24
REMARK   11  A    between atoms: C_25  and  O_27
REMARK   12  A    between atoms: O_27  and  C_28
REMARK   13  A    between atoms: C_28  and  C_29
REMARK   14  A    between atoms: C_28  and  C_30
REMARK   15  A    between atoms: C_28  and  C_31
REMARK                            x       y       z     vdW  Elec       q    Type
REMARK                         _______ _______ _______ _____ _____    ______ ____
ROOT
ATOM      1  C   UNL     1       1.492   9.250  18.627  0.00  0.00    +0.000 A 
ATOM      2  C   UNL     1       2.187   8.297  17.878  0.00  0.00    +0.000 A 
ATOM      3  C   UNL     1       2.665   7.111  18.446  0.00  0.00    +0.000 A 
ATOM      4  C   UNL     1       2.394   6.846  19.787  0.00  0.00    +0.000 A 
ATOM      5  C   UNL     1       1.645   7.761  20.535  0.00  0.00    +0.000 A 
ATOM      6  C   UNL     1       1.162   8.942  19.953  0.00  0.00    +0.000 A 
ENDROOT
BRANCH   3   7
ATOM      7  N   UNL     1       3.399   6.166  17.690  0.00  0.00    +0.000 N 
ATOM      8  C   UNL     1       4.728   6.303  17.339  0.00  0.00    +0.000 C 
ATOM      9  O   UNL     1       5.491   7.175  17.735  0.00  0.00    +0.000 OA
ATOM     10  N   UNL     1       5.148   5.294  16.497  0.00  0.00    +0.000 N 
ATOM     11  H   UNL     1       3.009   5.240  17.600  0.00  0.00    +0.000 HD
ATOM     12  H   UNL     1       4.443   4.929  15.879  0.00  0.00    +0.000 HD
BRANCH  10  13
ATOM     13  C   UNL     1       6.514   5.330  15.987  0.00  0.00    +0.000 C 
ATOM     14  C   UNL     1       7.455   4.549  16.903  0.00  0.00    +0.000 C 
BRANCH  13  15
ATOM     15  C   UNL     1       6.594   4.838  14.550  0.00  0.00    +0.000 A 
ATOM     16  C   UNL     1       7.583   5.355  13.696  0.00  0.00    +0.000 A 
ATOM     17  C   UNL     1       7.703   4.898  12.381  0.00  0.00    +0.000 A 
ATOM     18  C   UNL     1       6.830   3.928  11.898  0.00  0.00    +0.000 A 
ATOM     19  C   UNL     1       5.835   3.415  12.728  0.00  0.00    +0.000 A 
ATOM     20  C   UNL     1       5.716   3.867  14.045  0.00  0.00    +0.000 A 
ENDBRANCH  13  15
ENDBRANCH  10  13
ENDBRANCH   3   7
BRANCH   1  22
ATOM     21  C   UNL     1       1.569  11.658  18.717  0.00  0.00    +0.000 C 
ATOM     22  O   UNL     1       1.094  10.455  18.120  0.00  0.00    +0.000 OA
ENDBRANCH   1  22
BRANCH   6  23
ATOM     23  O   UNL     1       0.385   9.692  20.797  0.00  0.00    +0.000 OA
BRANCH  23  24
ATOM     24  C   UNL     1      -0.241   9.025  21.902  0.00  0.00    +0.000 C 
BRANCH  24  25
ATOM     25  C   UNL     1      -0.294   9.850  23.197  0.00  0.00    +0.000 C 
BRANCH  25  26
ATOM     26  N   UNL     1      -1.438  10.732  23.252  0.00  0.00    +0.000 N 
ATOM     27  C   UNL     1      -1.363  12.002  22.753  0.00  0.00    +0.000 C 
ATOM     28  O   UNL     1      -0.350  12.482  22.266  0.00  0.00    +0.000 OA
ATOM     29  H   UNL     1      -2.337  10.411  23.577  0.00  0.00    +0.000 HD
BRANCH  27  30
ATOM     30  O   UNL     1      -2.558  12.625  22.891  0.00  0.00    +0.000 OA
BRANCH  30  31
ATOM     31  C   UNL     1      -2.580  14.000  23.361  0.00  0.00    +0.000 C 
ATOM     32  C   UNL     1      -1.240  14.389  23.999  0.00  0.00    +0.000 C 
ATOM     33  C   UNL     1      -2.786  14.883  22.117  0.00  0.00    +0.000 C 
ATOM     34  C   UNL     1      -3.769  14.228  24.302  0.00  0.00    +0.000 C 
ENDBRANCH  30  31
ENDBRANCH  27  30
ENDBRANCH  25  26
ENDBRANCH  24  25
ENDBRANCH  23  24
ENDBRANCH   6  23
TORSDOF 10
ENDMDL
MODEL 6
REMARK VINA RESULT:      -7.1      2.040      3.071
REMARK  Name = 
REMARK  15 active torsions:
REMARK  status: ('A' for Active; 'I' for Inactive)
REMARK    1  A    between atoms: C_1  and  O_2
REMARK    2  A    between atoms: O_2  and  C_3
REMARK    3  A    between atoms: C_5  and  N_6
REMARK    4  A    between atoms: N_9  and  C_10
REMARK    5  A    between atoms: C_10  and  C_11
REMARK    6  A    between atoms: C_10  and  C_12
REMARK    7  A    between atoms: C_20  and  O_21
REMARK    8  A    between atoms: O_21  and  C_22
REMARK    9  A    between atoms: C_22  and  C_23
REMARK   10  A    between atoms: C_23  and  N_24
REMARK   11  A    between atoms: C_25  and  O_27
REMARK   12  A    between atoms: O_27  and  C_28
REMARK   13  A    between atoms: C_28  and  C_29
REMARK   14  A    between atoms: C_28  and  C_30
REMARK   15  A    between atoms: C_28  and  C_31
REMARK                            x       y       z     vdW  Elec       q    Type
REMARK                         _______ _______ _______ _____ _____    ______ ____
ROOT
ATOM      1  C   UNL     1      -0.469  11.001  20.379  0.00  0.00    +0.000 A 
ATOM      2  C   UNL     1       0.418   9.927  20.271  0.00  0.00    +0.000 A 
ATOM      3  C   UNL     1       0.747   9.123  21.367  0.00  0.00    +0.000 A 
ATOM      4  C   UNL     1       0.131   9.367  22.594  0.00  0.00    +0.000 A 
ATOM      5  C   UNL     1      -0.807  10.399  22.703  0.00  0.00    +0.000 A 
ATOM      6  C   UNL     1      -1.137  11.192  21.595  0.00  0.00    +0.000 A 
ENDROOT
BRANCH   3   7
ATOM      7  N   UNL     1       1.674   8.059  21.259  0.00  0.00    +0.000 N 
ATOM      8  C   UNL     1       2.105   7.511  20.067  0.00  0.00    +0.000 C 
ATOM      9  O   UNL     1       1.861   7.942  18.947  0.00  0.00    +0.000 OA
ATOM     10  N   UNL     1       2.908   6.407  20.265  0.00  0.00    +0.000 N 
ATOM     11  H   UNL     1       2.228   7.842  22.074  0.00  0.00    +0.000 HD
ATOM     12  H   UNL     1       2.696   5.863  21.084  0.00  0.00    +0.000 HD
BRANCH  10  13
ATOM     13  C   UNL     1       3.396   5.678  19.100  0.00  0.00    +0.000 C 
ATOM     14  C   UNL     1       4.907   5.473  19.182  0.00  0.00    +0.000 C 
BRANCH  13  15
ATOM     15  C   UNL     1       2.661   4.360  18.909  0.00  0.00    +0.000 A 
ATOM     16  C   UNL     1       1.484   4.112  19.635  0.00  0.00    +0.000 A 
ATOM     17  C   UNL     1       0.768   2.925  19.457  0.00  0.00    +0.000 A 
ATOM     18  C   UNL     1       1.225   1.966  18.559  0.00  0.00    +0.000 A 
ATOM     19  C   UNL     1       2.397   2.189  17.840  0.00  0.00    +0.000 A 
ATOM     20  C   UNL     1       3.112   3.377  18.013  0.00  0.00    +0.000 A 
ENDBRANCH  13  15
ENDBRANCH  10  13
ENDBRANCH   3   7
BRANCH   1  22
ATOM     21  C   UNL     1      -1.434  11.373  18.201  0.00  0.00    +0.000 C 
ATOM     22  O   UNL     1      -0.738  11.856  19.347  0.00  0.00    +0.000 OA
ENDBRANCH   1  22
BRANCH   6  23
ATOM     23  O   UNL     1      -2.125  12.107  21.850  0.00  0.00    +0.000 OA
BRANCH  23  24
ATOM     24  C   UNL     1      -2.091  12.799  23.105  0.00  0.00    +0.000 C 
BRANCH  24  25
ATOM     25  C   UNL     1      -3.323  12.568  23.994  0.00  0.00    +0.000 C 
BRANCH  25  26
ATOM     26  N   UNL     1      -4.539  12.396  23.230  0.00  0.00    +0.000 N 
ATOM     27  C   UNL     1      -5.421  13.429  23.084  0.00  0.00    +0.000 C 
ATOM     28  O   UNL     1      -5.270  14.529  23.593  0.00  0.00    +0.000 OA
ATOM     29  H   UNL     1      -4.726  11.547  22.720  0.00  0.00    +0.000 HD
BRANCH  27  30
ATOM     30  O   UNL     1      -6.464  13.041  22.310  0.00  0.00    +0.000 OA
BRANCH  30  31
ATOM     31  C   UNL     1      -6.328  13.118  20.866  0.00  0.00    +0.000 C 
ATOM     32  C   UNL     1      -6.390  11.724  20.227  0.00  0.00    +0.000 C 
ATOM     33  C   UNL     1      -7.536  13.926  20.357  0.00  0.00    +0.000 C 
ATOM     34  C   UNL     1      -5.055  13.884  20.485  0.00  0.00    +0.000 C 
ENDBRANCH  30  31
ENDBRANCH  27  30
ENDBRANCH  25  26
ENDBRANCH  24  25
ENDBRANCH  23  24
ENDBRANCH   6  23
TORSDOF 10
ENDMDL
MODEL 7
REMARK VINA RESULT:      -7.1      3.352      9.729
REMARK  Name = 
REMARK  15 active torsions:
REMARK  status: ('A' for Active; 'I' for Inactive)
REMARK    1  A    between atoms: C_1  and  O_2
REMARK    2  A    between atoms: O_2  and  C_3
REMARK    3  A    between atoms: C_5  and  N_6
REMARK    4  A    between atoms: N_9  and  C_10
REMARK    5  A    between atoms: C_10  and  C_11
REMARK    6  A    between atoms: C_10  and  C_12
REMARK    7  A    between atoms: C_20  and  O_21
REMARK    8  A    between atoms: O_21  and  C_22
REMARK    9  A    between atoms: C_22  and  C_23
REMARK   10  A    between atoms: C_23  and  N_24
REMARK   11  A    between atoms: C_25  and  O_27
REMARK   12  A    between atoms: O_27  and  C_28
REMARK   13  A    between atoms: C_28  and  C_29
REMARK   14  A    between atoms: C_28  and  C_30
REMARK   15  A    between atoms: C_28  and  C_31
REMARK                            x       y       z     vdW  Elec       q    Type
REMARK                         _______ _______ _______ _____ _____    ______ ____
ROOT
ATOM      1  C   UNL     1       2.152   6.839  19.881  0.00  0.00    +0.000 A 
ATOM      2  C   UNL     1       1.286   7.900  20.158  0.00  0.00    +0.000 A 
ATOM      3  C   UNL     1       1.220   9.036  19.343  0.00  0.00    +0.000 A 
ATOM      4  C   UNL     1       2.001   9.086  18.189  0.00  0.00    +0.000 A 
ATOM      5  C   UNL     1       2.826   8.004  17.864  0.00  0.00    +0.000 A 
ATOM      6  C   UNL     1       2.877   6.867  18.683  0.00  0.00    +0.000 A 
ENDROOT
BRANCH   3   7
ATOM      7  N   UNL     1       0.367  10.123  19.648  0.00  0.00    +0.000 N 
ATOM      8  C   UNL     1       0.359  10.801  20.851  0.00  0.00    +0.000 C 
ATOM      9  O   UNL     1       1.163  10.656  21.764  0.00  0.00    +0.000 OA
ATOM     10  N   UNL     1      -0.658  11.731  20.915  0.00  0.00    +0.000 N 
ATOM     11  H   UNL     1      -0.094  10.582  18.876  0.00  0.00    +0.000 HD
ATOM     12  H   UNL     1      -1.491  11.492  20.404  0.00  0.00    +0.000 HD
BRANCH  10  13
ATOM     13  C   UNL     1      -0.838  12.489  22.148  0.00  0.00    +0.000 C 
ATOM     14  C   UNL     1      -0.111  13.830  22.071  0.00  0.00    +0.000 C 
BRANCH  13  15
ATOM     15  C   UNL     1      -2.308  12.667  22.493  0.00  0.00    +0.000 A 
ATOM     16  C   UNL     1      -3.196  13.145  21.515  0.00  0.00    +0.000 A 
ATOM     17  C   UNL     1      -4.559  13.287  21.792  0.00  0.00    +0.000 A 
ATOM     18  C   UNL     1      -5.050  12.963  23.052  0.00  0.00    +0.000 A 
ATOM     19  C   UNL     1      -4.181  12.499  24.038  0.00  0.00    +0.000 A 
ATOM     20  C   UNL     1      -2.819  12.352  23.763  0.00  0.00    +0.000 A 
ENDBRANCH  13  15
ENDBRANCH  10  13
ENDBRANCH   3   7
BRANCH   1  22
ATOM     21  C   UNL     1       1.389   4.670  20.609  0.00  0.00    +0.000 C 
ATOM     22  O   UNL     1       2.301   5.761  20.707  0.00  0.00    +0.000 OA
ENDBRANCH   1  22
BRANCH   6  23
ATOM     23  O   UNL     1       3.673   5.869  18.187  0.00  0.00    +0.000 OA
BRANCH  23  24
ATOM     24  C   UNL     1       4.931   5.630  18.833  0.00  0.00    +0.000 C 
BRANCH  24  25
ATOM     25  C   UNL     1       5.452   4.190  18.700  0.00  0.00    +0.000 C 
BRANCH  25  26
ATOM     26  N   UNL     1       5.678   3.802  17.326  0.00  0.00    +0.000 N 
ATOM     27  C   UNL     1       6.809   4.194  16.668  0.00  0.00    +0.000 C 
ATOM     28  O   UNL     1       7.673   4.901  17.165  0.00  0.00    +0.000 OA
ATOM     29  H   UNL     1       5.055   3.169  16.847  0.00  0.00    +0.000 HD
BRANCH  27  30
ATOM     30  O   UNL     1       6.811   3.690  15.410  0.00  0.00    +0.000 OA
BRANCH  30  31
ATOM     31  C   UNL     1       6.385   4.545  14.315  0.00  0.00    +0.000 C 
ATOM     32  C   UNL     1       5.535   3.768  13.301  0.00  0.00    +0.000 C 
ATOM     33  C   UNL     1       5.499   5.640  14.936  0.00  0.00    +0.000 C 
ATOM     34  C   UNL     1       7.594   5.231  13.666  0.00  0.00    +0.000 C 
ENDBRANCH  30  31
ENDBRANCH  27  30
ENDBRANCH  25  26
ENDBRANCH  24  25
ENDBRANCH  23  24
ENDBRANCH   6  23
TORSDOF 10
ENDMDL
MODEL 8
REMARK VINA RESULT:      -7.1      1.915      3.304
REMARK  Name = 
REMARK  15 active torsions:
REMARK  status: ('A' for Active; 'I' for Inactive)
REMARK    1  A    between atoms: C_1  and  O_2
REMARK    2  A    between atoms: O_2  and  C_3
REMARK    3  A    between atoms: C_5  and  N_6
REMARK    4  A    between atoms: N_9  and  C_10
REMARK    5  A    between atoms: C_10  and  C_11
REMARK    6  A    between atoms: C_10  and  C_12
REMARK    7  A    between atoms: C_20  and  O_21
REMARK    8  A    between atoms: O_21  and  C_22
REMARK    9  A    between atoms: C_22  and  C_23
REMARK   10  A    between atoms: C_23  and  N_24
REMARK   11  A    between atoms: C_25  and  O_27
REMARK   12  A    between atoms: O_27  and  C_28
REMARK   13  A    between atoms: C_28  and  C_29
REMARK   14  A    between atoms: C_28  and  C_30
REMARK   15  A    between atoms: C_28  and  C_31
REMARK                            x       y       z     vdW  Elec       q    Type
REMARK                         _______ _______ _______ _____ _____    ______ ____
ROOT
ATOM      1  C   UNL     1       0.752  10.799  20.955  0.00  0.00    +0.000 A 
ATOM      2  C   UNL     1       1.029   9.639  20.226  0.00  0.00    +0.000 A 
ATOM      3  C   UNL     1       1.524   9.685  18.918  0.00  0.00    +0.000 A 
ATOM      4  C   UNL     1       1.801  10.924  18.343  0.00  0.00    +0.000 A 
ATOM      5  C   UNL     1       1.588  12.093  19.082  0.00  0.00    +0.000 A 
ATOM      6  C   UNL     1       1.101  12.035  20.396  0.00  0.00    +0.000 A 
ENDROOT
BRANCH   3   7
ATOM      7  N   UNL     1       1.770   8.507  18.173  0.00  0.00    +0.000 N 
ATOM      8  C   UNL     1       2.378   7.372  18.675  0.00  0.00    +0.000 C 
ATOM      9  O   UNL     1       2.665   7.169  19.848  0.00  0.00    +0.000 OA
ATOM     10  N   UNL     1       2.601   6.428  17.695  0.00  0.00    +0.000 N 
ATOM     11  H   UNL     1       1.271   8.396  17.303  0.00  0.00    +0.000 HD
ATOM     12  H   UNL     1       2.780   6.797  16.776  0.00  0.00    +0.000 HD
BRANCH  10  13
ATOM     13  C   UNL     1       3.291   5.194  18.054  0.00  0.00    +0.000 C 
ATOM     14  C   UNL     1       2.370   3.988  17.884  0.00  0.00    +0.000 C 
BRANCH  13  15
ATOM     15  C   UNL     1       4.588   5.025  17.277  0.00  0.00    +0.000 A 
ATOM     16  C   UNL     1       5.672   5.878  17.544  0.00  0.00    +0.000 A 
ATOM     17  C   UNL     1       6.886   5.725  16.870  0.00  0.00    +0.000 A 
ATOM     18  C   UNL     1       7.030   4.726  15.913  0.00  0.00    +0.000 A 
ATOM     19  C   UNL     1       5.961   3.880  15.626  0.00  0.00    +0.000 A 
ATOM     20  C   UNL     1       4.747   4.027  16.302  0.00  0.00    +0.000 A 
ENDBRANCH  13  15
ENDBRANCH  10  13
ENDBRANCH   3   7
BRANCH   1  22
ATOM     21  C   UNL     1      -0.229   9.543  22.764  0.00  0.00    +0.000 C 
ATOM     22  O   UNL     1       0.184  10.784  22.198  0.00  0.00    +0.000 OA
ENDBRANCH   1  22
BRANCH   6  23
ATOM     23  O   UNL     1       1.021  13.259  21.005  0.00  0.00    +0.000 OA
BRANCH  23  24
ATOM     24  C   UNL     1       0.110  14.223  20.458  0.00  0.00    +0.000 C 
BRANCH  24  25
ATOM     25  C   UNL     1      -1.320  13.700  20.250  0.00  0.00    +0.000 C 
BRANCH  25  26
ATOM     26  N   UNL     1      -1.571  13.284  18.888  0.00  0.00    +0.000 N 
ATOM     27  C   UNL     1      -1.965  12.005  18.611  0.00  0.00    +0.000 C 
ATOM     28  O   UNL     1      -2.104  11.139  19.461  0.00  0.00    +0.000 OA
ATOM     29  H   UNL     1      -1.544  13.940  18.122  0.00  0.00    +0.000 HD
BRANCH  27  30
ATOM     30  O   UNL     1      -2.163  11.860  17.278  0.00  0.00    +0.000 OA
BRANCH  30  31
ATOM     31  C   UNL     1      -3.226  10.981  16.823  0.00  0.00    +0.000 C 
ATOM     32  C   UNL     1      -3.167   9.623  17.533  0.00  0.00    +0.000 C 
ATOM     33  C   UNL     1      -4.551  11.661  17.211  0.00  0.00    +0.000 C 
ATOM     34  C   UNL     1      -3.196  10.848  15.295  0.00  0.00    +0.000 C 
ENDBRANCH  30  31
ENDBRANCH  27  30
ENDBRANCH  25  26
ENDBRANCH  24  25
ENDBRANCH  23  24
ENDBRANCH   6  23
TORSDOF 10
ENDMDL
MODEL 9
REMARK VINA RESULT:      -7.0      3.045      9.601
REMARK  Name = 
REMARK  15 active torsions:
REMARK  status: ('A' for Active; 'I' for Inactive)
REMARK    1  A    between atoms: C_1  and  O_2
REMARK    2  A    between atoms: O_2  and  C_3
REMARK    3  A    between atoms: C_5  and  N_6
REMARK    4  A    between atoms: N_9  and  C_10
REMARK    5  A    between atoms: C_10  and  C_11
REMARK    6  A    between atoms: C_10  and  C_12
REMARK    7  A    between atoms: C_20  and  O_21
REMARK    8  A    between atoms: O_21  and  C_22
REMARK    9  A    between atoms: C_22  and  C_23
REMARK   10  A    between atoms: C_23  and  N_24
REMARK   11  A    between atoms: C_25  and  O_27
REMARK   12  A    between atoms: O_27  and  C_28
REMARK   13  A    between atoms: C_28  and  C_29
REMARK   14  A    between atoms: C_28  and  C_30
REMARK   15  A    between atoms: C_28  and  C_31
REMARK                            x       y       z     vdW  Elec       q    Type
REMARK                         _______ _______ _______ _____ _____    ______ ____
ROOT
ATOM      1  C   UNL     1       1.515   4.697  20.171  0.00  0.00    +0.000 A 
ATOM      2  C   UNL     1       1.453   5.969  20.745  0.00  0.00    +0.000 A 
ATOM      3  C   UNL     1       1.861   7.116  20.056  0.00  0.00    +0.000 A 
ATOM      4  C   UNL     1       2.293   6.993  18.736  0.00  0.00    +0.000 A 
ATOM      5  C   UNL     1       2.302   5.734  18.125  0.00  0.00    +0.000 A 
ATOM      6  C   UNL     1       1.881   4.593  18.823  0.00  0.00    +0.000 A 
ENDROOT
BRANCH   3   7
ATOM      7  N   UNL     1       1.829   8.397  20.656  0.00  0.00    +0.000 N 
ATOM      8  C   UNL     1       0.898   9.376  20.367  0.00  0.00    +0.000 C 
ATOM      9  O   UNL     1      -0.096   9.238  19.666  0.00  0.00    +0.000 OA
ATOM     10  N   UNL     1       1.182  10.565  21.005  0.00  0.00    +0.000 N 
ATOM     11  H   UNL     1       2.361   8.526  21.503  0.00  0.00    +0.000 HD
ATOM     12  H   UNL     1       2.160  10.751  21.152  0.00  0.00    +0.000 HD
BRANCH  10  13
ATOM     13  C   UNL     1       0.324  11.718  20.754  0.00  0.00    +0.000 C 
ATOM     14  C   UNL     1      -0.312  12.213  22.051  0.00  0.00    +0.000 C 
BRANCH  13  15
ATOM     15  C   UNL     1       1.069  12.831  20.034  0.00  0.00    +0.000 A 
ATOM     16  C   UNL     1       1.943  12.511  18.982  0.00  0.00    +0.000 A 
ATOM     17  C   UNL     1       2.616  13.514  18.279  0.00  0.00    +0.000 A 
ATOM     18  C   UNL     1       2.433  14.849  18.625  0.00  0.00    +0.000 A 
ATOM     19  C   UNL     1       1.580  15.183  19.675  0.00  0.00    +0.000 A 
ATOM     20  C   UNL     1       0.903  14.182  20.376  0.00  0.00    +0.000 A 
ENDBRANCH  13  15
ENDBRANCH  10  13
ENDBRANCH   3   7
BRANCH   1  22
ATOM     21  C   UNL     1       2.201   2.933  21.665  0.00  0.00    +0.000 C 
ATOM     22  O   UNL     1       1.208   3.553  20.852  0.00  0.00    +0.000 OA
ENDBRANCH   1  22
BRANCH   6  23
ATOM     23  O   UNL     1       1.879   3.454  18.061  0.00  0.00    +0.000 OA
BRANCH  23  24
ATOM     24  C   UNL     1       3.059   2.638  18.071  0.00  0.00    +0.000 C 
BRANCH  24  25
ATOM     25  C   UNL     1       4.087   2.993  16.985  0.00  0.00    +0.000 C 
BRANCH  25  26
ATOM     26  N   UNL     1       5.330   3.489  17.533  0.00  0.00    +0.000 N 
ATOM     27  C   UNL     1       6.182   4.232  16.766  0.00  0.00    +0.000 C 
ATOM     28  O   UNL     1       5.979   4.500  15.592  0.00  0.00    +0.000 OA
ATOM     29  H   UNL     1       5.559   3.374  18.509  0.00  0.00    +0.000 HD
BRANCH  27  30
ATOM     30  O   UNL     1       7.259   4.604  17.499  0.00  0.00    +0.000 OA
BRANCH  30  31
ATOM     31  C   UNL     1       7.136   5.743  18.392  0.00  0.00    +0.000 C 
ATOM     32  C   UNL     1       5.808   5.707  19.160  0.00  0.00    +0.000 C 
ATOM     33  C   UNL     1       8.278   5.619  19.417  0.00  0.00    +0.000 C 
ATOM     34  C   UNL     1       7.335   7.055  17.622  0.00  0.00    +0.000 C 
ENDBRANCH  30  31
ENDBRANCH  27  30
ENDBRANCH  25  26
ENDBRANCH  24  25
ENDBRANCH  23  24
ENDBRANCH   6  23
TORSDOF 10
ENDMDL
