MODEL 1
REMARK VINA RESULT:      -8.0      0.000      0.000
REMARK  Name = 
REMARK  8 active torsions:
REMARK  status: ('A' for Active; 'I' for Inactive)
REMARK    1  A    between atoms: C_1  and  C_2
REMARK    2  A    between atoms: C_2  and  C_3
REMARK    3  A    between atoms: C_3  and  C_4
REMARK    4  A    between atoms: C_4  and  C_6
REMARK    5  A    between atoms: C_9  and  C_10
REMARK    6  A    between atoms: C_10  and  C_11
REMARK    7  A    between atoms: C_14  and  C_15
REMARK    8  A    between atoms: C_21  and  C_22
REMARK                            x       y       z     vdW  Elec       q    Type
REMARK                         _______ _______ _______ _____ _____    ______ ____
ROOT
ATOM      1  C   UNL     1       6.986   4.853  15.587  0.00  0.00    +0.000 A 
ATOM      2  N   UNL     1       7.899   4.197  16.380  0.00  0.00    +0.000 N 
ATOM      3  C   UNL     1       7.686   4.491  17.698  0.00  0.00    +0.000 A 
ATOM      4  C   UNL     1       6.582   5.315  17.796  0.00  0.00    +0.000 A 
ATOM      5  C   UNL     1       6.119   5.525  16.452  0.00  0.00    +0.000 A 
ATOM      6  C   UNL     1       4.938   6.340  16.036  0.00  0.00    +0.000 C 
ATOM      7  H   UNL     1       8.651   3.606  16.049  0.00  0.00    +0.000 HD
ENDROOT
BRANCH   1   8
ATOM      8  C   UNL     1       6.961   4.838  14.125  0.00  0.00    +0.000 C 
ATOM      9  O   UNL     1       7.719   5.534  13.447  0.00  0.00    +0.000 OA
BRANCH   8  10
ATOM     10  C   UNL     1       5.932   3.948  13.436  0.00  0.00    +0.000 C 
BRANCH  10  12
ATOM     11  C   UNL     1       5.536   2.320  11.552  0.00  0.00    +0.000 C 
ATOM     12  C   UNL     1       6.473   3.367  12.130  0.00  0.00    +0.000 C 
ENDBRANCH  10  12
ENDBRANCH   8  10
ENDBRANCH   1   8
BRANCH   4  13
ATOM     13  C   UNL     1       6.034   5.915  19.057  0.00  0.00    +0.000 C 
BRANCH  13  14
ATOM     14  C   UNL     1       4.739   5.217  19.374  0.00  0.00    +0.000 A 
ATOM     15  C   UNL     1       3.530   5.903  19.510  0.00  0.00    +0.000 A 
ATOM     16  C   UNL     1       2.353   5.204  19.772  0.00  0.00    +0.000 A 
ATOM     17  C   UNL     1       2.393   3.814  19.879  0.00  0.00    +0.000 A 
ATOM     18  N   UNL     1       3.559   3.123  19.725  0.00  0.00    +0.000 NA
ATOM     19  C   UNL     1       4.686   3.831  19.482  0.00  0.00    +0.000 A 
BRANCH  17  20
ATOM     20  C   UNL     1       1.113   3.041  20.174  0.00  0.00    +0.000 C 
ATOM     21  F   UNL     1       1.160   2.354  21.357  0.00  0.00    +0.000 F 
ATOM     22  F   UNL     1       0.011   3.841  20.269  0.00  0.00    +0.000 F 
ATOM     23  F   UNL     1       0.821   2.106  19.228  0.00  0.00    +0.000 F 
ENDBRANCH  17  20
ENDBRANCH  13  14
ENDBRANCH   4  13
TORSDOF 6
ENDMDL
MODEL 2
REMARK VINA RESULT:      -7.8      0.626      1.289
REMARK  Name = 
REMARK  8 active torsions:
REMARK  status: ('A' for Active; 'I' for Inactive)
REMARK    1  A    between atoms: C_1  and  C_2
REMARK    2  A    between atoms: C_2  and  C_3
REMARK    3  A    between atoms: C_3  and  C_4
REMARK    4  A    between atoms: C_4  and  C_6
REMARK    5  A    between atoms: C_9  and  C_10
REMARK    6  A    between atoms: C_10  and  C_11
REMARK    7  A    between atoms: C_14  and  C_15
REMARK    8  A    between atoms: C_21  and  C_22
REMARK                            x       y       z     vdW  Elec       q    Type
REMARK                         _______ _______ _______ _____ _____    ______ ____
ROOT
ATOM      1  C   UNL     1       7.032   4.859  15.540  0.00  0.00    +0.000 A 
ATOM      2  N   UNL     1       7.959   4.221  16.333  0.00  0.00    +0.000 N 
ATOM      3  C   UNL     1       7.733   4.501  17.652  0.00  0.00    +0.000 A 
ATOM      4  C   UNL     1       6.608   5.296  17.751  0.00  0.00    +0.000 A 
ATOM      5  C   UNL     1       6.145   5.504  16.406  0.00  0.00    +0.000 A 
ATOM      6  C   UNL     1       4.945   6.291  15.991  0.00  0.00    +0.000 C 
ATOM      7  H   UNL     1       8.726   3.652  16.000  0.00  0.00    +0.000 HD
ENDROOT
BRANCH   1   8
ATOM      8  C   UNL     1       7.013   4.854  14.077  0.00  0.00    +0.000 C 
ATOM      9  O   UNL     1       7.778   5.551  13.408  0.00  0.00    +0.000 OA
BRANCH   8  10
ATOM     10  C   UNL     1       5.983   3.974  13.379  0.00  0.00    +0.000 C 
BRANCH  10  12
ATOM     11  C   UNL     1       5.691   2.230  11.581  0.00  0.00    +0.000 C 
ATOM     12  C   UNL     1       6.523   3.405  12.067  0.00  0.00    +0.000 C 
ENDBRANCH  10  12
ENDBRANCH   8  10
ENDBRANCH   1   8
BRANCH   4  13
ATOM     13  C   UNL     1       6.040   5.873  19.013  0.00  0.00    +0.000 C 
BRANCH  13  14
ATOM     14  C   UNL     1       4.744   5.164  19.301  0.00  0.00    +0.000 A 
ATOM     15  C   UNL     1       4.673   3.785  19.513  0.00  0.00    +0.000 A 
ATOM     16  C   UNL     1       3.451   3.183  19.809  0.00  0.00    +0.000 A 
ATOM     17  C   UNL     1       2.307   3.974  19.909  0.00  0.00    +0.000 A 
ATOM     18  N   UNL     1       2.359   5.326  19.731  0.00  0.00    +0.000 NA
ATOM     19  C   UNL     1       3.558   5.878  19.434  0.00  0.00    +0.000 A 
BRANCH  17  20
ATOM     20  C   UNL     1       0.965   3.324  20.224  0.00  0.00    +0.000 C 
ATOM     21  F   UNL     1      -0.032   4.234  20.453  0.00  0.00    +0.000 F 
ATOM     22  F   UNL     1       0.499   2.533  19.215  0.00  0.00    +0.000 F 
ATOM     23  F   UNL     1       0.996   2.539  21.337  0.00  0.00    +0.000 F 
ENDBRANCH  17  20
ENDBRANCH  13  14
ENDBRANCH   4  13
TORSDOF 6
ENDMDL
MODEL 3
REMARK VINA RESULT:      -7.6      1.003      1.608
REMARK  Name = 
REMARK  8 active torsions:
REMARK  status: ('A' for Active; 'I' for Inactive)
REMARK    1  A    between atoms: C_1  and  C_2
REMARK    2  A    between atoms: C_2  and  C_3
REMARK    3  A    between atoms: C_3  and  C_4
REMARK    4  A    between atoms: C_4  and  C_6
REMARK    5  A    between atoms: C_9  and  C_10
REMARK    6  A    between atoms: C_10  and  C_11
REMARK    7  A    between atoms: C_14  and  C_15
REMARK    8  A    between atoms: C_21  and  C_22
REMARK                            x       y       z     vdW  Elec       q    Type
REMARK                         _______ _______ _______ _____ _____    ______ ____
ROOT
ATOM      1  C   UNL     1       6.262   5.545  15.268  0.00  0.00    +0.000 A 
ATOM      2  N   UNL     1       5.281   6.509  15.274  0.00  0.00    +0.000 N 
ATOM      3  C   UNL     1       4.947   6.844  16.556  0.00  0.00    +0.000 A 
ATOM      4  C   UNL     1       5.751   6.132  17.425  0.00  0.00    +0.000 A 
ATOM      5  C   UNL     1       6.608   5.323  16.603  0.00  0.00    +0.000 A 
ATOM      6  C   UNL     1       7.667   4.383  17.080  0.00  0.00    +0.000 C 
ATOM      7  H   UNL     1       4.834   6.900  14.454  0.00  0.00    +0.000 HD
ENDROOT
BRANCH   1   8
ATOM      8  C   UNL     1       6.808   4.890  14.079  0.00  0.00    +0.000 C 
ATOM      9  O   UNL     1       7.715   5.390  13.411  0.00  0.00    +0.000 OA
BRANCH   8  10
ATOM     10  C   UNL     1       6.195   3.562  13.650  0.00  0.00    +0.000 C 
BRANCH  10  12
ATOM     11  C   UNL     1       4.660   3.266  11.671  0.00  0.00    +0.000 C 
ATOM     12  C   UNL     1       6.097   3.450  12.128  0.00  0.00    +0.000 C 
ENDBRANCH  10  12
ENDBRANCH   8  10
ENDBRANCH   1   8
BRANCH   4  13
ATOM     13  C   UNL     1       5.681   6.163  18.923  0.00  0.00    +0.000 C 
BRANCH  13  14
ATOM     14  C   UNL     1       4.521   5.305  19.348  0.00  0.00    +0.000 A 
ATOM     15  C   UNL     1       3.282   5.842  19.709  0.00  0.00    +0.000 A 
ATOM     16  C   UNL     1       2.230   4.999  20.064  0.00  0.00    +0.000 A 
ATOM     17  C   UNL     1       2.421   3.619  20.037  0.00  0.00    +0.000 A 
ATOM     18  N   UNL     1       3.614   3.073  19.662  0.00  0.00    +0.000 NA
ATOM     19  C   UNL     1       4.619   3.918  19.334  0.00  0.00    +0.000 A 
BRANCH  17  20
ATOM     20  C   UNL     1       1.279   2.690  20.431  0.00  0.00    +0.000 C 
ATOM     21  F   UNL     1       1.391   1.439  19.886  0.00  0.00    +0.000 F 
ATOM     22  F   UNL     1       1.191   2.485  21.777  0.00  0.00    +0.000 F 
ATOM     23  F   UNL     1       0.056   3.144  20.036  0.00  0.00    +0.000 F 
ENDBRANCH  17  20
ENDBRANCH  13  14
ENDBRANCH   4  13
TORSDOF 6
ENDMDL
MODEL 4
REMARK VINA RESULT:      -7.4      3.729      4.991
REMARK  Name = 
REMARK  8 active torsions:
REMARK  status: ('A' for Active; 'I' for Inactive)
REMARK    1  A    between atoms: C_1  and  C_2
REMARK    2  A    between atoms: C_2  and  C_3
REMARK    3  A    between atoms: C_3  and  C_4
REMARK    4  A    between atoms: C_4  and  C_6
REMARK    5  A    between atoms: C_9  and  C_10
REMARK    6  A    between atoms: C_10  and  C_11
REMARK    7  A    between atoms: C_14  and  C_15
REMARK    8  A    between atoms: C_21  and  C_22
REMARK                            x       y       z     vdW  Elec       q    Type
REMARK                         _______ _______ _______ _____ _____    ______ ____
ROOT
ATOM      1  C   UNL     1       6.069   4.589  18.105  0.00  0.00    +0.000 A 
ATOM      2  N   UNL     1       5.669   3.604  18.979  0.00  0.00    +0.000 N 
ATOM      3  C   UNL     1       4.306   3.581  19.083  0.00  0.00    +0.000 A 
ATOM      4  C   UNL     1       3.780   4.530  18.228  0.00  0.00    +0.000 A 
ATOM      5  C   UNL     1       4.902   5.155  17.585  0.00  0.00    +0.000 A 
ATOM      6  C   UNL     1       4.848   6.241  16.559  0.00  0.00    +0.000 C 
ATOM      7  H   UNL     1       6.284   2.998  19.505  0.00  0.00    +0.000 HD
ENDROOT
BRANCH   1   8
ATOM      8  C   UNL     1       7.454   4.955  17.809  0.00  0.00    +0.000 C 
ATOM      9  O   UNL     1       8.183   4.255  17.106  0.00  0.00    +0.000 OA
BRANCH   8  10
ATOM     10  C   UNL     1       8.002   6.235  18.430  0.00  0.00    +0.000 C 
BRANCH  10  12
ATOM     11  C   UNL     1       8.289   8.725  18.160  0.00  0.00    +0.000 C 
ATOM     12  C   UNL     1       7.759   7.448  17.532  0.00  0.00    +0.000 C 
ENDBRANCH  10  12
ENDBRANCH   8  10
ENDBRANCH   1   8
BRANCH   4  13
ATOM     13  C   UNL     1       2.328   4.870  18.068  0.00  0.00    +0.000 C 
BRANCH  13  14
ATOM     14  C   UNL     1       2.027   6.041  18.964  0.00  0.00    +0.000 A 
ATOM     15  C   UNL     1       2.028   7.360  18.502  0.00  0.00    +0.000 A 
ATOM     16  C   UNL     1       1.710   8.406  19.367  0.00  0.00    +0.000 A 
ATOM     17  C   UNL     1       1.374   8.121  20.689  0.00  0.00    +0.000 A 
ATOM     18  N   UNL     1       1.342   6.838  21.154  0.00  0.00    +0.000 NA
ATOM     19  C   UNL     1       1.666   5.846  20.293  0.00  0.00    +0.000 A 
BRANCH  17  20
ATOM     20  C   UNL     1       1.032   9.258  21.644  0.00  0.00    +0.000 C 
ATOM     21  F   UNL     1       1.229  10.497  21.097  0.00  0.00    +0.000 F 
ATOM     22  F   UNL     1      -0.271   9.249  22.048  0.00  0.00    +0.000 F 
ATOM     23  F   UNL     1       1.781   9.247  22.783  0.00  0.00    +0.000 F 
ENDBRANCH  17  20
ENDBRANCH  13  14
ENDBRANCH   4  13
TORSDOF 6
ENDMDL
MODEL 5
REMARK VINA RESULT:      -7.4      4.559      7.514
REMARK  Name = 
REMARK  8 active torsions:
REMARK  status: ('A' for Active; 'I' for Inactive)
REMARK    1  A    between atoms: C_1  and  C_2
REMARK    2  A    between atoms: C_2  and  C_3
REMARK    3  A    between atoms: C_3  and  C_4
REMARK    4  A    between atoms: C_4  and  C_6
REMARK    5  A    between atoms: C_9  and  C_10
REMARK    6  A    between atoms: C_10  and  C_11
REMARK    7  A    between atoms: C_14  and  C_15
REMARK    8  A    between atoms: C_21  and  C_22
REMARK                            x       y       z     vdW  Elec       q    Type
REMARK                         _______ _______ _______ _____ _____    ______ ____
ROOT
ATOM      1  C   UNL     1       2.426   4.556  18.509  0.00  0.00    +0.000 A 
ATOM      2  N   UNL     1       2.423   5.894  18.188  0.00  0.00    +0.000 N 
ATOM      3  C   UNL     1       3.678   6.303  17.831  0.00  0.00    +0.000 A 
ATOM      4  C   UNL     1       4.526   5.213  17.863  0.00  0.00    +0.000 A 
ATOM      5  C   UNL     1       3.723   4.093  18.270  0.00  0.00    +0.000 A 
ATOM      6  C   UNL     1       4.185   2.682  18.439  0.00  0.00    +0.000 C 
ATOM      7  H   UNL     1       1.622   6.510  18.239  0.00  0.00    +0.000 HD
ENDROOT
BRANCH   1   8
ATOM      8  C   UNL     1       1.281   3.796  19.012  0.00  0.00    +0.000 C 
ATOM      9  O   UNL     1       0.639   3.025  18.297  0.00  0.00    +0.000 OA
BRANCH   8  10
ATOM     10  C   UNL     1       0.865   4.008  20.463  0.00  0.00    +0.000 C 
BRANCH  10  12
ATOM     11  C   UNL     1       2.634   2.685  21.679  0.00  0.00    +0.000 C 
ATOM     12  C   UNL     1       1.161   2.776  21.320  0.00  0.00    +0.000 C 
ENDBRANCH  10  12
ENDBRANCH   8  10
ENDBRANCH   1   8
BRANCH   4  13
ATOM     13  C   UNL     1       6.000   5.230  17.589  0.00  0.00    +0.000 C 
BRANCH  13  14
ATOM     14  C   UNL     1       6.206   4.861  16.145  0.00  0.00    +0.000 A 
ATOM     15  C   UNL     1       5.309   4.051  15.442  0.00  0.00    +0.000 A 
ATOM     16  C   UNL     1       5.530   3.767  14.095  0.00  0.00    +0.000 A 
ATOM     17  C   UNL     1       6.642   4.312  13.455  0.00  0.00    +0.000 A 
ATOM     18  N   UNL     1       7.516   5.125  14.117  0.00  0.00    +0.000 NA
ATOM     19  C   UNL     1       7.280   5.374  15.426  0.00  0.00    +0.000 A 
BRANCH  17  20
ATOM     20  C   UNL     1       6.896   3.999  11.986  0.00  0.00    +0.000 C 
ATOM     21  F   UNL     1       5.746   3.783  11.275  0.00  0.00    +0.000 F 
ATOM     22  F   UNL     1       7.539   5.005  11.325  0.00  0.00    +0.000 F 
ATOM     23  F   UNL     1       7.650   2.880  11.797  0.00  0.00    +0.000 F 
ENDBRANCH  17  20
ENDBRANCH  13  14
ENDBRANCH   4  13
TORSDOF 6
ENDMDL
MODEL 6
REMARK VINA RESULT:      -7.3      1.127      1.937
REMARK  Name = 
REMARK  8 active torsions:
REMARK  status: ('A' for Active; 'I' for Inactive)
REMARK    1  A    between atoms: C_1  and  C_2
REMARK    2  A    between atoms: C_2  and  C_3
REMARK    3  A    between atoms: C_3  and  C_4
REMARK    4  A    between atoms: C_4  and  C_6
REMARK    5  A    between atoms: C_9  and  C_10
REMARK    6  A    between atoms: C_10  and  C_11
REMARK    7  A    between atoms: C_14  and  C_15
REMARK    8  A    between atoms: C_21  and  C_22
REMARK                            x       y       z     vdW  Elec       q    Type
REMARK                         _______ _______ _______ _____ _____    ______ ____
ROOT
ATOM      1  C   UNL     1       6.301   5.538  15.165  0.00  0.00    +0.000 A 
ATOM      2  N   UNL     1       5.311   6.494  15.162  0.00  0.00    +0.000 N 
ATOM      3  C   UNL     1       4.968   6.831  16.442  0.00  0.00    +0.000 A 
ATOM      4  C   UNL     1       5.775   6.129  17.317  0.00  0.00    +0.000 A 
ATOM      5  C   UNL     1       6.643   5.324  16.503  0.00  0.00    +0.000 A 
ATOM      6  C   UNL     1       7.708   4.396  16.988  0.00  0.00    +0.000 C 
ATOM      7  H   UNL     1       4.864   6.877  14.339  0.00  0.00    +0.000 HD
ENDROOT
BRANCH   1   8
ATOM      8  C   UNL     1       6.857   4.884  13.981  0.00  0.00    +0.000 C 
ATOM      9  O   UNL     1       7.726   5.412  13.285  0.00  0.00    +0.000 OA
BRANCH   8  10
ATOM     10  C   UNL     1       6.305   3.516  13.594  0.00  0.00    +0.000 C 
BRANCH  10  12
ATOM     11  C   UNL     1       5.508   2.300  11.534  0.00  0.00    +0.000 C 
ATOM     12  C   UNL     1       5.446   3.591  12.331  0.00  0.00    +0.000 C 
ENDBRANCH  10  12
ENDBRANCH   8  10
ENDBRANCH   1   8
BRANCH   4  13
ATOM     13  C   UNL     1       5.698   6.165  18.814  0.00  0.00    +0.000 C 
BRANCH  13  14
ATOM     14  C   UNL     1       4.616   5.211  19.244  0.00  0.00    +0.000 A 
ATOM     15  C   UNL     1       4.820   3.831  19.322  0.00  0.00    +0.000 A 
ATOM     16  C   UNL     1       3.793   2.995  19.758  0.00  0.00    +0.000 A 
ATOM     17  C   UNL     1       2.571   3.551  20.130  0.00  0.00    +0.000 A 
ATOM     18  N   UNL     1       2.360   4.899  20.086  0.00  0.00    +0.000 NA
ATOM     19  C   UNL     1       3.372   5.682  19.648  0.00  0.00    +0.000 A 
BRANCH  17  20
ATOM     20  C   UNL     1       1.440   2.645  20.600  0.00  0.00    +0.000 C 
ATOM     21  F   UNL     1       1.335   1.492  19.869  0.00  0.00    +0.000 F 
ATOM     22  F   UNL     1       1.581   2.234  21.894  0.00  0.00    +0.000 F 
ATOM     23  F   UNL     1       0.213   3.231  20.521  0.00  0.00    +0.000 F 
ENDBRANCH  17  20
ENDBRANCH  13  14
ENDBRANCH   4  13
TORSDOF 6
ENDMDL
MODEL 7
REMARK VINA RESULT:      -7.2      4.365      6.918
REMARK  Name = 
REMARK  8 active torsions:
REMARK  status: ('A' for Active; 'I' for Inactive)
REMARK    1  A    between atoms: C_1  and  C_2
REMARK    2  A    between atoms: C_2  and  C_3
REMARK    3  A    between atoms: C_3  and  C_4
REMARK    4  A    between atoms: C_4  and  C_6
REMARK    5  A    between atoms: C_9  and  C_10
REMARK    6  A    between atoms: C_10  and  C_11
REMARK    7  A    between atoms: C_14  and  C_15
REMARK    8  A    between atoms: C_21  and  C_22
REMARK                            x       y       z     vdW  Elec       q    Type
REMARK                         _______ _______ _______ _____ _____    ______ ____
ROOT
ATOM      1  C   UNL     1       3.407   4.027  20.114  0.00  0.00    +0.000 A 
ATOM      2  N   UNL     1       4.446   3.153  19.888  0.00  0.00    +0.000 N 
ATOM      3  C   UNL     1       5.404   3.741  19.109  0.00  0.00    +0.000 A 
ATOM      4  C   UNL     1       5.027   5.044  18.850  0.00  0.00    +0.000 A 
ATOM      5  C   UNL     1       3.766   5.235  19.513  0.00  0.00    +0.000 A 
ATOM      6  C   UNL     1       2.957   6.491  19.538  0.00  0.00    +0.000 C 
ATOM      7  H   UNL     1       4.494   2.197  20.215  0.00  0.00    +0.000 HD
ENDROOT
BRANCH   1   8
ATOM      8  C   UNL     1       2.174   3.716  20.838  0.00  0.00    +0.000 C 
ATOM      9  O   UNL     1       2.162   3.490  22.049  0.00  0.00    +0.000 OA
BRANCH   8  10
ATOM     10  C   UNL     1       0.878   3.640  20.040  0.00  0.00    +0.000 C 
BRANCH  10  12
ATOM     11  C   UNL     1       1.196   3.890  17.551  0.00  0.00    +0.000 C 
ATOM     12  C   UNL     1       1.075   2.914  18.709  0.00  0.00    +0.000 C 
ENDBRANCH  10  12
ENDBRANCH   8  10
ENDBRANCH   1   8
BRANCH   4  13
ATOM     13  C   UNL     1       5.767   6.026  17.990  0.00  0.00    +0.000 C 
BRANCH  13  14
ATOM     14  C   UNL     1       5.908   5.423  16.619  0.00  0.00    +0.000 A 
ATOM     15  C   UNL     1       4.844   4.804  15.957  0.00  0.00    +0.000 A 
ATOM     16  C   UNL     1       5.020   4.292  14.673  0.00  0.00    +0.000 A 
ATOM     17  C   UNL     1       6.262   4.419  14.051  0.00  0.00    +0.000 A 
ATOM     18  N   UNL     1       7.306   5.042  14.669  0.00  0.00    +0.000 NA
ATOM     19  C   UNL     1       7.106   5.520  15.920  0.00  0.00    +0.000 A 
BRANCH  17  20
ATOM     20  C   UNL     1       6.467   3.855  12.651  0.00  0.00    +0.000 C 
ATOM     21  F   UNL     1       5.327   3.873  11.892  0.00  0.00    +0.000 F 
ATOM     22  F   UNL     1       7.391   4.544  11.922  0.00  0.00    +0.000 F 
ATOM     23  F   UNL     1       6.877   2.555  12.650  0.00  0.00    +0.000 F 
ENDBRANCH  17  20
ENDBRANCH  13  14
ENDBRANCH   4  13
TORSDOF 6
ENDMDL
MODEL 8
REMARK VINA RESULT:      -7.1      2.531      4.131
REMARK  Name = 
REMARK  8 active torsions:
REMARK  status: ('A' for Active; 'I' for Inactive)
REMARK    1  A    between atoms: C_1  and  C_2
REMARK    2  A    between atoms: C_2  and  C_3
REMARK    3  A    between atoms: C_3  and  C_4
REMARK    4  A    between atoms: C_4  and  C_6
REMARK    5  A    between atoms: C_9  and  C_10
REMARK    6  A    between atoms: C_10  and  C_11
REMARK    7  A    between atoms: C_14  and  C_15
REMARK    8  A    between atoms: C_21  and  C_22
REMARK                            x       y       z     vdW  Elec       q    Type
REMARK                         _______ _______ _______ _____ _____    ______ ____
ROOT
ATOM      1  C   UNL     1       7.146   6.132  17.296  0.00  0.00    +0.000 A 
ATOM      2  N   UNL     1       7.689   5.181  16.462  0.00  0.00    +0.000 N 
ATOM      3  C   UNL     1       6.711   4.366  15.966  0.00  0.00    +0.000 A 
ATOM      4  C   UNL     1       5.487   4.806  16.431  0.00  0.00    +0.000 A 
ATOM      5  C   UNL     1       5.761   5.948  17.259  0.00  0.00    +0.000 A 
ATOM      6  C   UNL     1       4.756   6.784  17.982  0.00  0.00    +0.000 C 
ATOM      7  H   UNL     1       8.674   5.067  16.263  0.00  0.00    +0.000 HD
ENDROOT
BRANCH   1   8
ATOM      8  C   UNL     1       7.899   7.121  18.067  0.00  0.00    +0.000 C 
ATOM      9  O   UNL     1       8.459   6.840  19.128  0.00  0.00    +0.000 OA
BRANCH   8  10
ATOM     10  C   UNL     1       7.953   8.549  17.537  0.00  0.00    +0.000 C 
BRANCH  10  12
ATOM     11  C   UNL     1       9.303  10.648  17.901  0.00  0.00    +0.000 C 
ATOM     12  C   UNL     1       8.547   9.511  18.567  0.00  0.00    +0.000 C 
ENDBRANCH  10  12
ENDBRANCH   8  10
ENDBRANCH   1   8
BRANCH   4  13
ATOM     13  C   UNL     1       4.157   4.165  16.168  0.00  0.00    +0.000 C 
BRANCH  13  14
ATOM     14  C   UNL     1       3.515   3.871  17.497  0.00  0.00    +0.000 A 
ATOM     15  C   UNL     1       2.173   4.158  17.762  0.00  0.00    +0.000 A 
ATOM     16  C   UNL     1       1.620   3.835  19.000  0.00  0.00    +0.000 A 
ATOM     17  C   UNL     1       2.412   3.208  19.961  0.00  0.00    +0.000 A 
ATOM     18  N   UNL     1       3.717   2.896  19.713  0.00  0.00    +0.000 NA
ATOM     19  C   UNL     1       4.228   3.233  18.505  0.00  0.00    +0.000 A 
BRANCH  17  20
ATOM     20  C   UNL     1       1.818   2.859  21.320  0.00  0.00    +0.000 C 
ATOM     21  F   UNL     1       2.234   1.643  21.792  0.00  0.00    +0.000 F 
ATOM     22  F   UNL     1       2.147   3.752  22.297  0.00  0.00    +0.000 F 
ATOM     23  F   UNL     1       0.457   2.792  21.310  0.00  0.00    +0.000 F 
ENDBRANCH  17  20
ENDBRANCH  13  14
ENDBRANCH   4  13
TORSDOF 6
ENDMDL
MODEL 9
REMARK VINA RESULT:      -7.1      3.552      4.866
REMARK  Name = 
REMARK  8 active torsions:
REMARK  status: ('A' for Active; 'I' for Inactive)
REMARK    1  A    between atoms: C_1  and  C_2
REMARK    2  A    between atoms: C_2  and  C_3
REMARK    3  A    between atoms: C_3  and  C_4
REMARK    4  A    between atoms: C_4  and  C_6
REMARK    5  A    between atoms: C_9  and  C_10
REMARK    6  A    between atoms: C_10  and  C_11
REMARK    7  A    between atoms: C_14  and  C_15
REMARK    8  A    between atoms: C_21  and  C_22
REMARK                            x       y       z     vdW  Elec       q    Type
REMARK                         _______ _______ _______ _____ _____    ______ ____
ROOT
ATOM      1  C   UNL     1       6.052   4.375  17.938  0.00  0.00    +0.000 A 
ATOM      2  N   UNL     1       5.598   3.438  18.839  0.00  0.00    +0.000 N 
ATOM      3  C   UNL     1       4.234   3.474  18.919  0.00  0.00    +0.000 A 
ATOM      4  C   UNL     1       3.761   4.412  18.023  0.00  0.00    +0.000 A 
ATOM      5  C   UNL     1       4.918   4.969  17.378  0.00  0.00    +0.000 A 
ATOM      6  C   UNL     1       4.925   6.018  16.315  0.00  0.00    +0.000 C 
ATOM      7  H   UNL     1       6.180   2.827  19.396  0.00  0.00    +0.000 HD
ENDROOT
BRANCH   1   8
ATOM      8  C   UNL     1       7.455   4.675  17.655  0.00  0.00    +0.000 C 
ATOM      9  O   UNL     1       8.004   4.326  16.608  0.00  0.00    +0.000 OA
BRANCH   8  10
ATOM     10  C   UNL     1       8.257   5.416  18.718  0.00  0.00    +0.000 C 
BRANCH  10  12
ATOM     11  C   UNL     1       7.835   7.631  17.589  0.00  0.00    +0.000 C 
ATOM     12  C   UNL     1       7.767   6.855  18.893  0.00  0.00    +0.000 C 
ENDBRANCH  10  12
ENDBRANCH   8  10
ENDBRANCH   1   8
BRANCH   4  13
ATOM     13  C   UNL     1       2.327   4.804  17.826  0.00  0.00    +0.000 C 
BRANCH  13  14
ATOM     14  C   UNL     1       1.998   5.872  18.833  0.00  0.00    +0.000 A 
ATOM     15  C   UNL     1       1.638   5.576  20.151  0.00  0.00    +0.000 A 
ATOM     16  C   UNL     1       1.375   6.606  21.053  0.00  0.00    +0.000 A 
ATOM     17  C   UNL     1       1.492   7.930  20.632  0.00  0.00    +0.000 A 
ATOM     18  N   UNL     1       1.866   8.240  19.357  0.00  0.00    +0.000 NA
ATOM     19  C   UNL     1       2.104   7.218  18.502  0.00  0.00    +0.000 A 
BRANCH  17  20
ATOM     20  C   UNL     1       1.198   9.062  21.609  0.00  0.00    +0.000 C 
ATOM     21  F   UNL     1       2.095   9.127  22.641  0.00  0.00    +0.000 F 
ATOM     22  F   UNL     1       1.233  10.297  21.028  0.00  0.00    +0.000 F 
ATOM     23  F   UNL     1      -0.024   8.957  22.202  0.00  0.00    +0.000 F 
ENDBRANCH  17  20
ENDBRANCH  13  14
ENDBRANCH   4  13
TORSDOF 6
ENDMDL
