MODEL 1
REMARK VINA RESULT:      -8.2      0.000      0.000
REMARK  Name = 
REMARK  10 active torsions:
REMARK  status: ('A' for Active; 'I' for Inactive)
REMARK    1  A    between atoms: C_1  and  C_2
REMARK    2  A    between atoms: C_2  and  N_3
REMARK    3  A    between atoms: N_3  and  C_4
REMARK    4  A    between atoms: N_3  and  C_6
REMARK    5  A    between atoms: C_4  and  C_5
REMARK    6  A    between atoms: C_6  and  C_7
REMARK    7  A    between atoms: C_10  and  O_11
REMARK    8  A    between atoms: O_11  and  C_12
REMARK    9  A    between atoms: C_12  and  C_13
REMARK   10  A    between atoms: N_15  and  C_16
REMARK                            x       y       z     vdW  Elec       q    Type
REMARK                         _______ _______ _______ _____ _____    ______ ____
ROOT
ATOM      1  C   UNL     1       4.667   4.338  17.169  0.00  0.00    +0.000 A 
ATOM      2  C   UNL     1       4.992   5.022  18.350  0.00  0.00    +0.000 A 
ATOM      3  C   UNL     1       6.057   5.914  18.392  0.00  0.00    +0.000 A 
ATOM      4  C   UNL     1       6.823   6.136  17.247  0.00  0.00    +0.000 A 
ATOM      5  C   UNL     1       6.588   5.421  16.066  0.00  0.00    +0.000 A 
ATOM      6  N   UNL     1       7.402   5.610  15.004  0.00  0.00    +0.000 NA
ATOM      7  C   UNL     1       7.210   4.886  13.888  0.00  0.00    +0.000 A 
ATOM      8  C   UNL     1       6.195   3.967  13.747  0.00  0.00    +0.000 A 
ATOM      9  C   UNL     1       5.326   3.791  14.820  0.00  0.00    +0.000 A 
ATOM     10  C   UNL     1       5.503   4.502  16.028  0.00  0.00    +0.000 A 
ENDROOT
BRANCH   1  11
ATOM     11  C   UNL     1       3.381   3.519  17.173  0.00  0.00    +0.000 C 
BRANCH  11  12
ATOM     12  N   UNL     1       2.827   3.178  18.493  0.00  0.00    +0.000 NA
BRANCH  12  14
ATOM     13  C   UNL     1       0.790   3.500  19.921  0.00  0.00    +0.000 C 
ATOM     14  C   UNL     1       1.360   3.279  18.522  0.00  0.00    +0.000 C 
ENDBRANCH  12  14
BRANCH  12  15
ATOM     15  C   UNL     1       3.356   1.889  18.976  0.00  0.00    +0.000 C 
ATOM     16  C   UNL     1       4.446   1.942  20.047  0.00  0.00    +0.000 C 
ENDBRANCH  12  15
ENDBRANCH  11  12
ENDBRANCH   1  11
BRANCH   4  17
ATOM     17  O   UNL     1       7.790   7.119  17.173  0.00  0.00    +0.000 OA
BRANCH  17  18
ATOM     18  C   UNL     1       8.241   7.674  18.394  0.00  0.00    +0.000 C 
BRANCH  18  19
ATOM     19  C   UNL     1       8.458   9.186  18.372  0.00  0.00    +0.000 C 
ATOM     20  O   UNL     1       7.807   9.881  17.595  0.00  0.00    +0.000 OA
ATOM     21  N   UNL     1       9.429   9.635  19.258  0.00  0.00    +0.000 N 
ATOM     22  H   UNL     1       9.997   8.911  19.692  0.00  0.00    +0.000 HD
BRANCH  21  23
ATOM     23  C   UNL     1       9.851  10.976  19.394  0.00  0.00    +0.000 A 
ATOM     24  C   UNL     1       9.801  11.658  20.615  0.00  0.00    +0.000 A 
ATOM     25  C   UNL     1      10.106  13.018  20.692  0.00  0.00    +0.000 A 
ATOM     26  C   UNL     1      10.487  13.702  19.544  0.00  0.00    +0.000 A 
ATOM     27 CL   UNL     1      10.788  15.393  19.624  0.00  0.00    +0.000 Cl
ATOM     28  C   UNL     1      10.610  13.024  18.332  0.00  0.00    +0.000 A 
ATOM     29  C   UNL     1      10.305  11.657  18.260  0.00  0.00    +0.000 A 
ENDBRANCH  21  23
ENDBRANCH  18  19
ENDBRANCH  17  18
ENDBRANCH   4  17
TORSDOF 8
ENDMDL
MODEL 2
REMARK VINA RESULT:      -8.1      1.435      1.760
REMARK  Name = 
REMARK  10 active torsions:
REMARK  status: ('A' for Active; 'I' for Inactive)
REMARK    1  A    between atoms: C_1  and  C_2
REMARK    2  A    between atoms: C_2  and  N_3
REMARK    3  A    between atoms: N_3  and  C_4
REMARK    4  A    between atoms: N_3  and  C_6
REMARK    5  A    between atoms: C_4  and  C_5
REMARK    6  A    between atoms: C_6  and  C_7
REMARK    7  A    between atoms: C_10  and  O_11
REMARK    8  A    between atoms: O_11  and  C_12
REMARK    9  A    between atoms: C_12  and  C_13
REMARK   10  A    between atoms: N_15  and  C_16
REMARK                            x       y       z     vdW  Elec       q    Type
REMARK                         _______ _______ _______ _____ _____    ______ ____
ROOT
ATOM      1  C   UNL     1       5.251   4.180  18.155  0.00  0.00    +0.000 A 
ATOM      2  C   UNL     1       5.751   4.803  19.309  0.00  0.00    +0.000 A 
ATOM      3  C   UNL     1       6.754   5.760  19.230  0.00  0.00    +0.000 A 
ATOM      4  C   UNL     1       7.283   6.111  17.987  0.00  0.00    +0.000 A 
ATOM      5  C   UNL     1       6.874   5.463  16.814  0.00  0.00    +0.000 A 
ATOM      6  N   UNL     1       7.467   5.780  15.642  0.00  0.00    +0.000 NA
ATOM      7  C   UNL     1       7.113   5.122  14.524  0.00  0.00    +0.000 A 
ATOM      8  C   UNL     1       6.141   4.148  14.495  0.00  0.00    +0.000 A 
ATOM      9  C   UNL     1       5.496   3.841  15.690  0.00  0.00    +0.000 A 
ATOM     10  C   UNL     1       5.853   4.477  16.899  0.00  0.00    +0.000 A 
ENDROOT
BRANCH   1  11
ATOM     11  C   UNL     1       4.035   3.277  18.324  0.00  0.00    +0.000 C 
BRANCH  11  12
ATOM     12  N   UNL     1       2.827   3.904  18.886  0.00  0.00    +0.000 NA
BRANCH  12  14
ATOM     13  C   UNL     1       2.369   6.272  18.196  0.00  0.00    +0.000 C 
ATOM     14  C   UNL     1       2.158   4.785  17.918  0.00  0.00    +0.000 C 
ENDBRANCH  12  14
BRANCH  12  15
ATOM     15  C   UNL     1       1.943   2.898  19.504  0.00  0.00    +0.000 C 
ATOM     16  C   UNL     1       0.831   3.417  20.417  0.00  0.00    +0.000 C 
ENDBRANCH  12  15
ENDBRANCH  11  12
ENDBRANCH   1  11
BRANCH   4  17
ATOM     17  O   UNL     1       8.165   7.160  17.818  0.00  0.00    +0.000 OA
BRANCH  17  18
ATOM     18  C   UNL     1       7.614   8.463  17.753  0.00  0.00    +0.000 C 
BRANCH  18  19
ATOM     19  C   UNL     1       8.533   9.575  18.255  0.00  0.00    +0.000 C 
ATOM     20  O   UNL     1       9.262   9.370  19.223  0.00  0.00    +0.000 OA
ATOM     21  N   UNL     1       8.428  10.763  17.544  0.00  0.00    +0.000 N 
ATOM     22  H   UNL     1       7.649  10.820  16.893  0.00  0.00    +0.000 HD
BRANCH  21  23
ATOM     23  C   UNL     1       9.131  11.953  17.837  0.00  0.00    +0.000 A 
ATOM     24  C   UNL     1       8.480  13.161  18.112  0.00  0.00    +0.000 A 
ATOM     25  C   UNL     1       9.200  14.345  18.275  0.00  0.00    +0.000 A 
ATOM     26  C   UNL     1      10.586  14.325  18.184  0.00  0.00    +0.000 A 
ATOM     27 CL   UNL     1      11.467  15.796  18.306  0.00  0.00    +0.000 Cl
ATOM     28  C   UNL     1      11.257  13.119  17.980  0.00  0.00    +0.000 A 
ATOM     29  C   UNL     1      10.530  11.931  17.819  0.00  0.00    +0.000 A 
ENDBRANCH  21  23
ENDBRANCH  18  19
ENDBRANCH  17  18
ENDBRANCH   4  17
TORSDOF 8
ENDMDL
MODEL 3
REMARK VINA RESULT:      -7.8      6.264      9.006
REMARK  Name = 
REMARK  10 active torsions:
REMARK  status: ('A' for Active; 'I' for Inactive)
REMARK    1  A    between atoms: C_1  and  C_2
REMARK    2  A    between atoms: C_2  and  N_3
REMARK    3  A    between atoms: N_3  and  C_4
REMARK    4  A    between atoms: N_3  and  C_6
REMARK    5  A    between atoms: C_4  and  C_5
REMARK    6  A    between atoms: C_6  and  C_7
REMARK    7  A    between atoms: C_10  and  O_11
REMARK    8  A    between atoms: O_11  and  C_12
REMARK    9  A    between atoms: C_12  and  C_13
REMARK   10  A    between atoms: N_15  and  C_16
REMARK                            x       y       z     vdW  Elec       q    Type
REMARK                         _______ _______ _______ _____ _____    ______ ____
ROOT
ATOM      1  C   UNL     1       4.051   5.403  17.575  0.00  0.00    +0.000 A 
ATOM      2  C   UNL     1       3.912   6.734  17.154  0.00  0.00    +0.000 A 
ATOM      3  C   UNL     1       3.147   7.639  17.879  0.00  0.00    +0.000 A 
ATOM      4  C   UNL     1       2.500   7.225  19.045  0.00  0.00    +0.000 A 
ATOM      5  C   UNL     1       2.543   5.890  19.464  0.00  0.00    +0.000 A 
ATOM      6  N   UNL     1       1.839   5.516  20.555  0.00  0.00    +0.000 NA
ATOM      7  C   UNL     1       1.837   4.224  20.929  0.00  0.00    +0.000 A 
ATOM      8  C   UNL     1       2.549   3.246  20.273  0.00  0.00    +0.000 A 
ATOM      9  C   UNL     1       3.309   3.626  19.170  0.00  0.00    +0.000 A 
ATOM     10  C   UNL     1       3.320   4.963  18.715  0.00  0.00    +0.000 A 
ENDROOT
BRANCH   1  11
ATOM     11  C   UNL     1       5.047   4.534  16.815  0.00  0.00    +0.000 C 
BRANCH  11  12
ATOM     12  N   UNL     1       6.409   5.075  16.671  0.00  0.00    +0.000 NA
BRANCH  12  14
ATOM     13  C   UNL     1       7.650   5.997  18.646  0.00  0.00    +0.000 C 
ATOM     14  C   UNL     1       7.255   4.767  17.832  0.00  0.00    +0.000 C 
ENDBRANCH  12  14
BRANCH  12  15
ATOM     15  C   UNL     1       6.998   4.695  15.372  0.00  0.00    +0.000 C 
ATOM     16  C   UNL     1       6.088   3.966  14.383  0.00  0.00    +0.000 C 
ENDBRANCH  12  15
ENDBRANCH  11  12
ENDBRANCH   1  11
BRANCH   4  17
ATOM     17  O   UNL     1       1.857   8.103  19.895  0.00  0.00    +0.000 OA
BRANCH  17  18
ATOM     18  C   UNL     1       1.502   9.369  19.369  0.00  0.00    +0.000 C 
BRANCH  18  19
ATOM     19  C   UNL     1       0.034   9.750  19.547  0.00  0.00    +0.000 C 
ATOM     20  O   UNL     1      -0.505   9.597  20.642  0.00  0.00    +0.000 OA
ATOM     21  N   UNL     1      -0.572  10.234  18.395  0.00  0.00    +0.000 N 
ATOM     22  H   UNL     1      -0.037  10.125  17.537  0.00  0.00    +0.000 HD
BRANCH  21  23
ATOM     23  C   UNL     1      -1.929  10.608  18.284  0.00  0.00    +0.000 A 
ATOM     24  C   UNL     1      -2.808   9.986  17.390  0.00  0.00    +0.000 A 
ATOM     25  C   UNL     1      -4.109  10.460  17.213  0.00  0.00    +0.000 A 
ATOM     26  C   UNL     1      -4.548  11.552  17.951  0.00  0.00    +0.000 A 
ATOM     27 CL   UNL     1      -6.124  12.183  17.678  0.00  0.00    +0.000 Cl
ATOM     28  C   UNL     1      -3.711  12.141  18.898  0.00  0.00    +0.000 A 
ATOM     29  C   UNL     1      -2.405  11.661  19.074  0.00  0.00    +0.000 A 
ENDBRANCH  21  23
ENDBRANCH  18  19
ENDBRANCH  17  18
ENDBRANCH   4  17
TORSDOF 8
ENDMDL
MODEL 4
REMARK VINA RESULT:      -7.8      4.633      7.108
REMARK  Name = 
REMARK  10 active torsions:
REMARK  status: ('A' for Active; 'I' for Inactive)
REMARK    1  A    between atoms: C_1  and  C_2
REMARK    2  A    between atoms: C_2  and  N_3
REMARK    3  A    between atoms: N_3  and  C_4
REMARK    4  A    between atoms: N_3  and  C_6
REMARK    5  A    between atoms: C_4  and  C_5
REMARK    6  A    between atoms: C_6  and  C_7
REMARK    7  A    between atoms: C_10  and  O_11
REMARK    8  A    between atoms: O_11  and  C_12
REMARK    9  A    between atoms: C_12  and  C_13
REMARK   10  A    between atoms: N_15  and  C_16
REMARK                            x       y       z     vdW  Elec       q    Type
REMARK                         _______ _______ _______ _____ _____    ______ ____
ROOT
ATOM      1  C   UNL     1       5.117   4.276  16.126  0.00  0.00    +0.000 A 
ATOM      2  C   UNL     1       4.168   3.272  16.371  0.00  0.00    +0.000 A 
ATOM      3  C   UNL     1       3.891   2.848  17.664  0.00  0.00    +0.000 A 
ATOM      4  C   UNL     1       4.566   3.421  18.744  0.00  0.00    +0.000 A 
ATOM      5  C   UNL     1       5.576   4.370  18.547  0.00  0.00    +0.000 A 
ATOM      6  N   UNL     1       6.257   4.843  19.614  0.00  0.00    +0.000 NA
ATOM      7  C   UNL     1       7.263   5.715  19.422  0.00  0.00    +0.000 A 
ATOM      8  C   UNL     1       7.627   6.188  18.182  0.00  0.00    +0.000 A 
ATOM      9  C   UNL     1       6.908   5.738  17.079  0.00  0.00    +0.000 A 
ATOM     10  C   UNL     1       5.864   4.797  17.221  0.00  0.00    +0.000 A 
ENDROOT
BRANCH   1  11
ATOM     11  C   UNL     1       5.225   4.797  14.697  0.00  0.00    +0.000 C 
BRANCH  11  12
ATOM     12  N   UNL     1       6.197   4.116  13.826  0.00  0.00    +0.000 NA
BRANCH  12  14
ATOM     13  C   UNL     1       5.711   2.441  12.023  0.00  0.00    +0.000 C 
ATOM     14  C   UNL     1       5.671   3.900  12.470  0.00  0.00    +0.000 C 
ENDBRANCH  12  14
BRANCH  12  15
ATOM     15  C   UNL     1       7.510   4.787  13.867  0.00  0.00    +0.000 C 
ATOM     16  C   UNL     1       7.978   5.479  12.587  0.00  0.00    +0.000 C 
ENDBRANCH  12  15
ENDBRANCH  11  12
ENDBRANCH   1  11
BRANCH   4  17
ATOM     17  O   UNL     1       4.231   3.163  20.058  0.00  0.00    +0.000 OA
BRANCH  17  18
ATOM     18  C   UNL     1       2.863   3.268  20.408  0.00  0.00    +0.000 C 
BRANCH  18  19
ATOM     19  C   UNL     1       2.155   4.512  19.876  0.00  0.00    +0.000 C 
ATOM     20  O   UNL     1       1.227   4.389  19.079  0.00  0.00    +0.000 OA
ATOM     21  N   UNL     1       2.673   5.709  20.354  0.00  0.00    +0.000 N 
ATOM     22  H   UNL     1       3.553   5.638  20.858  0.00  0.00    +0.000 HD
BRANCH  21  23
ATOM     23  C   UNL     1       2.230   6.996  19.977  0.00  0.00    +0.000 A 
ATOM     24  C   UNL     1       1.500   7.821  20.840  0.00  0.00    +0.000 A 
ATOM     25  C   UNL     1       0.970   9.034  20.398  0.00  0.00    +0.000 A 
ATOM     26  C   UNL     1       1.187   9.442  19.088  0.00  0.00    +0.000 A 
ATOM     27 CL   UNL     1       0.470  10.899  18.522  0.00  0.00    +0.000 Cl
ATOM     28  C   UNL     1       1.972   8.668  18.234  0.00  0.00    +0.000 A 
ATOM     29  C   UNL     1       2.504   7.451  18.682  0.00  0.00    +0.000 A 
ENDBRANCH  21  23
ENDBRANCH  18  19
ENDBRANCH  17  18
ENDBRANCH   4  17
TORSDOF 8
ENDMDL
MODEL 5
REMARK VINA RESULT:      -7.7      0.621      1.311
REMARK  Name = 
REMARK  10 active torsions:
REMARK  status: ('A' for Active; 'I' for Inactive)
REMARK    1  A    between atoms: C_1  and  C_2
REMARK    2  A    between atoms: C_2  and  N_3
REMARK    3  A    between atoms: N_3  and  C_4
REMARK    4  A    between atoms: N_3  and  C_6
REMARK    5  A    between atoms: C_4  and  C_5
REMARK    6  A    between atoms: C_6  and  C_7
REMARK    7  A    between atoms: C_10  and  O_11
REMARK    8  A    between atoms: O_11  and  C_12
REMARK    9  A    between atoms: C_12  and  C_13
REMARK   10  A    between atoms: N_15  and  C_16
REMARK                            x       y       z     vdW  Elec       q    Type
REMARK                         _______ _______ _______ _____ _____    ______ ____
ROOT
ATOM      1  C   UNL     1       4.228   4.928  17.116  0.00  0.00    +0.000 A 
ATOM      2  C   UNL     1       4.474   5.772  18.209  0.00  0.00    +0.000 A 
ATOM      3  C   UNL     1       5.602   6.582  18.250  0.00  0.00    +0.000 A 
ATOM      4  C   UNL     1       6.512   6.560  17.192  0.00  0.00    +0.000 A 
ATOM      5  C   UNL     1       6.353   5.678  16.115  0.00  0.00    +0.000 A 
ATOM      6  N   UNL     1       7.298   5.634  15.151  0.00  0.00    +0.000 NA
ATOM      7  C   UNL     1       7.173   4.752  14.144  0.00  0.00    +0.000 A 
ATOM      8  C   UNL     1       6.104   3.895  14.017  0.00  0.00    +0.000 A 
ATOM      9  C   UNL     1       5.104   3.958  14.984  0.00  0.00    +0.000 A 
ATOM     10  C   UNL     1       5.202   4.843  16.080  0.00  0.00    +0.000 A 
ENDROOT
BRANCH   1  11
ATOM     11  C   UNL     1       2.883   4.211  17.080  0.00  0.00    +0.000 C 
BRANCH  11  12
ATOM     12  N   UNL     1       2.762   3.006  17.917  0.00  0.00    +0.000 NA
BRANCH  12  14
ATOM     13  C   UNL     1       4.243   2.389  19.844  0.00  0.00    +0.000 C 
ATOM     14  C   UNL     1       4.072   2.483  18.330  0.00  0.00    +0.000 C 
ENDBRANCH  12  14
BRANCH  12  15
ATOM     15  C   UNL     1       1.816   3.222  19.028  0.00  0.00    +0.000 C 
ATOM     16  C   UNL     1       0.588   2.314  19.083  0.00  0.00    +0.000 C 
ENDBRANCH  12  15
ENDBRANCH  11  12
ENDBRANCH   1  11
BRANCH   4  17
ATOM     17  O   UNL     1       7.565   7.448  17.092  0.00  0.00    +0.000 OA
BRANCH  17  18
ATOM     18  C   UNL     1       8.204   7.830  18.296  0.00  0.00    +0.000 C 
BRANCH  18  19
ATOM     19  C   UNL     1       8.503   9.322  18.420  0.00  0.00    +0.000 C 
ATOM     20  O   UNL     1       7.922  10.121  17.687  0.00  0.00    +0.000 OA
ATOM     21  N   UNL     1       9.459   9.633  19.378  0.00  0.00    +0.000 N 
ATOM     22  H   UNL     1       9.970   8.843  19.764  0.00  0.00    +0.000 HD
BRANCH  21  23
ATOM     23  C   UNL     1       9.947  10.931  19.651  0.00  0.00    +0.000 A 
ATOM     24  C   UNL     1       9.542  11.664  20.771  0.00  0.00    +0.000 A 
ATOM     25  C   UNL     1       9.945  12.989  20.947  0.00  0.00    +0.000 A 
ATOM     26  C   UNL     1      10.779  13.584  20.008  0.00  0.00    +0.000 A 
ATOM     27 CL   UNL     1      11.212  15.239  20.185  0.00  0.00    +0.000 Cl
ATOM     28  C   UNL     1      11.250  12.847  18.922  0.00  0.00    +0.000 A 
ATOM     29  C   UNL     1      10.844  11.516  18.750  0.00  0.00    +0.000 A 
ENDBRANCH  21  23
ENDBRANCH  18  19
ENDBRANCH  17  18
ENDBRANCH   4  17
TORSDOF 8
ENDMDL
MODEL 6
REMARK VINA RESULT:      -7.7      6.168      8.590
REMARK  Name = 
REMARK  10 active torsions:
REMARK  status: ('A' for Active; 'I' for Inactive)
REMARK    1  A    between atoms: C_1  and  C_2
REMARK    2  A    between atoms: C_2  and  N_3
REMARK    3  A    between atoms: N_3  and  C_4
REMARK    4  A    between atoms: N_3  and  C_6
REMARK    5  A    between atoms: C_4  and  C_5
REMARK    6  A    between atoms: C_6  and  C_7
REMARK    7  A    between atoms: C_10  and  O_11
REMARK    8  A    between atoms: O_11  and  C_12
REMARK    9  A    between atoms: C_12  and  C_13
REMARK   10  A    between atoms: N_15  and  C_16
REMARK                            x       y       z     vdW  Elec       q    Type
REMARK                         _______ _______ _______ _____ _____    ______ ____
ROOT
ATOM      1  C   UNL     1       3.686   4.979  17.792  0.00  0.00    +0.000 A 
ATOM      2  C   UNL     1       3.771   6.364  17.999  0.00  0.00    +0.000 A 
ATOM      3  C   UNL     1       3.000   6.994  18.967  0.00  0.00    +0.000 A 
ATOM      4  C   UNL     1       2.120   6.245  19.749  0.00  0.00    +0.000 A 
ATOM      5  C   UNL     1       1.940   4.874  19.530  0.00  0.00    +0.000 A 
ATOM      6  N   UNL     1       1.021   4.202  20.258  0.00  0.00    +0.000 NA
ATOM      7  C   UNL     1       0.810   2.896  20.013  0.00  0.00    +0.000 A 
ATOM      8  C   UNL     1       1.510   2.182  19.067  0.00  0.00    +0.000 A 
ATOM      9  C   UNL     1       2.486   2.854  18.338  0.00  0.00    +0.000 A 
ATOM     10  C   UNL     1       2.725   4.233  18.532  0.00  0.00    +0.000 A 
ENDROOT
BRANCH   1  11
ATOM     11  C   UNL     1       4.694   4.356  16.833  0.00  0.00    +0.000 C 
BRANCH  11  12
ATOM     12  N   UNL     1       5.631   5.282  16.177  0.00  0.00    +0.000 NA
BRANCH  12  14
ATOM     13  C   UNL     1       7.394   6.653  17.318  0.00  0.00    +0.000 C 
ATOM     14  C   UNL     1       6.954   5.280  16.816  0.00  0.00    +0.000 C 
ENDBRANCH  12  14
BRANCH  12  15
ATOM     15  C   UNL     1       5.661   5.064  14.718  0.00  0.00    +0.000 C 
ATOM     16  C   UNL     1       7.019   4.755  14.089  0.00  0.00    +0.000 C 
ENDBRANCH  12  15
ENDBRANCH  11  12
ENDBRANCH   1  11
BRANCH   4  17
ATOM     17  O   UNL     1       1.443   6.775  20.830  0.00  0.00    +0.000 OA
BRANCH  17  18
ATOM     18  C   UNL     1       1.535   8.175  21.026  0.00  0.00    +0.000 C 
BRANCH  18  19
ATOM     19  C   UNL     1       0.235   8.850  21.457  0.00  0.00    +0.000 C 
ATOM     20  O   UNL     1      -0.729   8.160  21.784  0.00  0.00    +0.000 OA
ATOM     21  N   UNL     1       0.272  10.238  21.413  0.00  0.00    +0.000 N 
ATOM     22  H   UNL     1       1.081  10.642  20.947  0.00  0.00    +0.000 HD
BRANCH  21  23
ATOM     23  C   UNL     1      -0.811  11.093  21.714  0.00  0.00    +0.000 A 
ATOM     24  C   UNL     1      -1.342  11.207  23.003  0.00  0.00    +0.000 A 
ATOM     25  C   UNL     1      -2.490  11.963  23.244  0.00  0.00    +0.000 A 
ATOM     26  C   UNL     1      -3.105  12.632  22.193  0.00  0.00    +0.000 A 
ATOM     27 CL   UNL     1      -4.563  13.500  22.475  0.00  0.00    +0.000 Cl
ATOM     28  C   UNL     1      -2.551  12.588  20.914  0.00  0.00    +0.000 A 
ATOM     29  C   UNL     1      -1.396  11.828  20.677  0.00  0.00    +0.000 A 
ENDBRANCH  21  23
ENDBRANCH  18  19
ENDBRANCH  17  18
ENDBRANCH   4  17
TORSDOF 8
ENDMDL
MODEL 7
REMARK VINA RESULT:      -7.7      1.168      1.363
REMARK  Name = 
REMARK  10 active torsions:
REMARK  status: ('A' for Active; 'I' for Inactive)
REMARK    1  A    between atoms: C_1  and  C_2
REMARK    2  A    between atoms: C_2  and  N_3
REMARK    3  A    between atoms: N_3  and  C_4
REMARK    4  A    between atoms: N_3  and  C_6
REMARK    5  A    between atoms: C_4  and  C_5
REMARK    6  A    between atoms: C_6  and  C_7
REMARK    7  A    between atoms: C_10  and  O_11
REMARK    8  A    between atoms: O_11  and  C_12
REMARK    9  A    between atoms: C_12  and  C_13
REMARK   10  A    between atoms: N_15  and  C_16
REMARK                            x       y       z     vdW  Elec       q    Type
REMARK                         _______ _______ _______ _____ _____    ______ ____
ROOT
ATOM      1  C   UNL     1       5.289   4.255  17.933  0.00  0.00    +0.000 A 
ATOM      2  C   UNL     1       5.791   5.018  18.998  0.00  0.00    +0.000 A 
ATOM      3  C   UNL     1       6.740   6.009  18.785  0.00  0.00    +0.000 A 
ATOM      4  C   UNL     1       7.211   6.255  17.494  0.00  0.00    +0.000 A 
ATOM      5  C   UNL     1       6.800   5.469  16.410  0.00  0.00    +0.000 A 
ATOM      6  N   UNL     1       7.339   5.691  15.190  0.00  0.00    +0.000 NA
ATOM      7  C   UNL     1       6.985   4.904  14.159  0.00  0.00    +0.000 A 
ATOM      8  C   UNL     1       6.065   3.886  14.266  0.00  0.00    +0.000 A 
ATOM      9  C   UNL     1       5.474   3.673  15.508  0.00  0.00    +0.000 A 
ATOM     10  C   UNL     1       5.834   4.449  16.632  0.00  0.00    +0.000 A 
ENDROOT
BRANCH   1  11
ATOM     11  C   UNL     1       4.127   3.316  18.238  0.00  0.00    +0.000 C 
BRANCH  11  12
ATOM     12  N   UNL     1       3.314   3.644  19.420  0.00  0.00    +0.000 NA
BRANCH  12  14
ATOM     13  C   UNL     1       1.895   5.379  20.545  0.00  0.00    +0.000 C 
ATOM     14  C   UNL     1       2.623   4.933  19.279  0.00  0.00    +0.000 C 
ENDBRANCH  12  14
BRANCH  12  15
ATOM     15  C   UNL     1       2.433   2.519  19.789  0.00  0.00    +0.000 C 
ATOM     16  C   UNL     1       1.272   2.207  18.844  0.00  0.00    +0.000 C 
ENDBRANCH  12  15
ENDBRANCH  11  12
ENDBRANCH   1  11
BRANCH   4  17
ATOM     17  O   UNL     1       8.031   7.322  17.187  0.00  0.00    +0.000 OA
BRANCH  17  18
ATOM     18  C   UNL     1       7.564   8.615  17.530  0.00  0.00    +0.000 C 
BRANCH  18  19
ATOM     19  C   UNL     1       8.566   9.480  18.291  0.00  0.00    +0.000 C 
ATOM     20  O   UNL     1       9.141   9.018  19.276  0.00  0.00    +0.000 OA
ATOM     21  N   UNL     1       8.715  10.762  17.781  0.00  0.00    +0.000 N 
ATOM     22  H   UNL     1       8.033  11.038  17.078  0.00  0.00    +0.000 HD
BRANCH  21  23
ATOM     23  C   UNL     1       9.540  11.768  18.331  0.00  0.00    +0.000 A 
ATOM     24  C   UNL     1      10.176  11.623  19.568  0.00  0.00    +0.000 A 
ATOM     25  C   UNL     1      10.882  12.682  20.143  0.00  0.00    +0.000 A 
ATOM     26  C   UNL     1      10.974  13.893  19.467  0.00  0.00    +0.000 A 
ATOM     27 CL   UNL     1      11.777  15.220  20.208  0.00  0.00    +0.000 Cl
ATOM     28  C   UNL     1      10.406  14.034  18.201  0.00  0.00    +0.000 A 
ATOM     29  C   UNL     1       9.700  12.967  17.627  0.00  0.00    +0.000 A 
ENDBRANCH  21  23
ENDBRANCH  18  19
ENDBRANCH  17  18
ENDBRANCH   4  17
TORSDOF 8
ENDMDL
MODEL 8
REMARK VINA RESULT:      -7.7      0.904      1.291
REMARK  Name = 
REMARK  10 active torsions:
REMARK  status: ('A' for Active; 'I' for Inactive)
REMARK    1  A    between atoms: C_1  and  C_2
REMARK    2  A    between atoms: C_2  and  N_3
REMARK    3  A    between atoms: N_3  and  C_4
REMARK    4  A    between atoms: N_3  and  C_6
REMARK    5  A    between atoms: C_4  and  C_5
REMARK    6  A    between atoms: C_6  and  C_7
REMARK    7  A    between atoms: C_10  and  O_11
REMARK    8  A    between atoms: O_11  and  C_12
REMARK    9  A    between atoms: C_12  and  C_13
REMARK   10  A    between atoms: N_15  and  C_16
REMARK                            x       y       z     vdW  Elec       q    Type
REMARK                         _______ _______ _______ _____ _____    ______ ____
ROOT
ATOM      1  C   UNL     1       5.143   4.053  17.780  0.00  0.00    +0.000 A 
ATOM      2  C   UNL     1       5.536   4.740  18.938  0.00  0.00    +0.000 A 
ATOM      3  C   UNL     1       6.469   5.767  18.881  0.00  0.00    +0.000 A 
ATOM      4  C   UNL     1       7.034   6.125  17.656  0.00  0.00    +0.000 A 
ATOM      5  C   UNL     1       6.734   5.419  16.484  0.00  0.00    +0.000 A 
ATOM      6  N   UNL     1       7.362   5.749  15.334  0.00  0.00    +0.000 NA
ATOM      7  C   UNL     1       7.114   5.039  14.219  0.00  0.00    +0.000 A 
ATOM      8  C   UNL     1       6.219   3.995  14.171  0.00  0.00    +0.000 A 
ATOM      9  C   UNL     1       5.538   3.670  15.341  0.00  0.00    +0.000 A 
ATOM     10  C   UNL     1       5.785   4.362  16.547  0.00  0.00    +0.000 A 
ENDROOT
BRANCH   1  11
ATOM     11  C   UNL     1       3.989   3.065  17.916  0.00  0.00    +0.000 C 
BRANCH  11  12
ATOM     12  N   UNL     1       2.640   3.646  18.007  0.00  0.00    +0.000 NA
BRANCH  12  14
ATOM     13  C   UNL     1       0.702   2.338  18.915  0.00  0.00    +0.000 C 
ATOM     14  C   UNL     1       1.925   3.202  19.213  0.00  0.00    +0.000 C 
ENDBRANCH  12  14
BRANCH  12  15
ATOM     15  C   UNL     1       2.677   5.110  17.828  0.00  0.00    +0.000 C 
ATOM     16  C   UNL     1       2.194   5.966  18.999  0.00  0.00    +0.000 C 
ENDBRANCH  12  15
ENDBRANCH  11  12
ENDBRANCH   1  11
BRANCH   4  17
ATOM     17  O   UNL     1       7.844   7.232  17.501  0.00  0.00    +0.000 OA
BRANCH  17  18
ATOM     18  C   UNL     1       8.373   7.816  18.678  0.00  0.00    +0.000 C 
BRANCH  18  19
ATOM     19  C   UNL     1       8.641   9.317  18.587  0.00  0.00    +0.000 C 
ATOM     20  O   UNL     1       8.168   9.962  17.653  0.00  0.00    +0.000 OA
ATOM     21  N   UNL     1       9.445   9.814  19.604  0.00  0.00    +0.000 N 
ATOM     22  H   UNL     1       9.898   9.116  20.188  0.00  0.00    +0.000 HD
BRANCH  21  23
ATOM     23  C   UNL     1       9.879  11.153  19.719  0.00  0.00    +0.000 A 
ATOM     24  C   UNL     1       9.214  12.091  20.516  0.00  0.00    +0.000 A 
ATOM     25  C   UNL     1       9.592  13.435  20.512  0.00  0.00    +0.000 A 
ATOM     26  C   UNL     1      10.658  13.846  19.721  0.00  0.00    +0.000 A 
ATOM     27 CL   UNL     1      11.074  15.513  19.657  0.00  0.00    +0.000 Cl
ATOM     28  C   UNL     1      11.378  12.914  18.975  0.00  0.00    +0.000 A 
ATOM     29  C   UNL     1      10.996  11.564  18.983  0.00  0.00    +0.000 A 
ENDBRANCH  21  23
ENDBRANCH  18  19
ENDBRANCH  17  18
ENDBRANCH   4  17
TORSDOF 8
ENDMDL
MODEL 9
REMARK VINA RESULT:      -7.6      6.071      7.979
REMARK  Name = 
REMARK  10 active torsions:
REMARK  status: ('A' for Active; 'I' for Inactive)
REMARK    1  A    between atoms: C_1  and  C_2
REMARK    2  A    between atoms: C_2  and  N_3
REMARK    3  A    between atoms: N_3  and  C_4
REMARK    4  A    between atoms: N_3  and  C_6
REMARK    5  A    between atoms: C_4  and  C_5
REMARK    6  A    between atoms: C_6  and  C_7
REMARK    7  A    between atoms: C_10  and  O_11
REMARK    8  A    between atoms: O_11  and  C_12
REMARK    9  A    between atoms: C_12  and  C_13
REMARK   10  A    between atoms: N_15  and  C_16
REMARK                            x       y       z     vdW  Elec       q    Type
REMARK                         _______ _______ _______ _____ _____    ______ ____
ROOT
ATOM      1  C   UNL     1       4.234   5.226  17.740  0.00  0.00    +0.000 A 
ATOM      2  C   UNL     1       4.208   6.486  17.123  0.00  0.00    +0.000 A 
ATOM      3  C   UNL     1       3.412   7.511  17.618  0.00  0.00    +0.000 A 
ATOM      4  C   UNL     1       2.620   7.292  18.747  0.00  0.00    +0.000 A 
ATOM      5  C   UNL     1       2.551   6.031  19.352  0.00  0.00    +0.000 A 
ATOM      6  N   UNL     1       1.713   5.842  20.395  0.00  0.00    +0.000 NA
ATOM      7  C   UNL     1       1.607   4.619  20.944  0.00  0.00    +0.000 A 
ATOM      8  C   UNL     1       2.339   3.534  20.520  0.00  0.00    +0.000 A 
ATOM      9  C   UNL     1       3.234   3.725  19.472  0.00  0.00    +0.000 A 
ATOM     10  C   UNL     1       3.360   4.981  18.837  0.00  0.00    +0.000 A 
ENDROOT
BRANCH   1  11
ATOM     11  C   UNL     1       5.266   4.225  17.232  0.00  0.00    +0.000 C 
BRANCH  11  12
ATOM     12  N   UNL     1       6.553   4.782  16.787  0.00  0.00    +0.000 NA
BRANCH  12  14
ATOM     13  C   UNL     1       7.710   6.141  18.549  0.00  0.00    +0.000 C 
ATOM     14  C   UNL     1       7.557   4.787  17.861  0.00  0.00    +0.000 C 
ENDBRANCH  12  14
BRANCH  12  15
ATOM     15  C   UNL     1       7.006   4.143  15.536  0.00  0.00    +0.000 C 
ATOM     16  C   UNL     1       6.848   4.950  14.247  0.00  0.00    +0.000 C 
ENDBRANCH  12  15
ENDBRANCH  11  12
ENDBRANCH   1  11
BRANCH   4  17
ATOM     17  O   UNL     1       1.930   8.303  19.384  0.00  0.00    +0.000 OA
BRANCH  17  18
ATOM     18  C   UNL     1       1.220   9.216  18.566  0.00  0.00    +0.000 C 
BRANCH  18  19
ATOM     19  C   UNL     1       0.293  10.168  19.319  0.00  0.00    +0.000 C 
ATOM     20  O   UNL     1      -0.687  10.640  18.746  0.00  0.00    +0.000 OA
ATOM     21  N   UNL     1       0.684  10.428  20.626  0.00  0.00    +0.000 N 
ATOM     22  H   UNL     1       1.613  10.103  20.881  0.00  0.00    +0.000 HD
BRANCH  21  23
ATOM     23  C   UNL     1       0.027  11.310  21.513  0.00  0.00    +0.000 A 
ATOM     24  C   UNL     1      -0.866  10.862  22.492  0.00  0.00    +0.000 A 
ATOM     25  C   UNL     1      -1.593  11.765  23.270  0.00  0.00    +0.000 A 
ATOM     26  C   UNL     1      -1.413  13.130  23.086  0.00  0.00    +0.000 A 
ATOM     27 CL   UNL     1      -2.364  14.242  23.989  0.00  0.00    +0.000 Cl
ATOM     28  C   UNL     1      -0.476  13.595  22.164  0.00  0.00    +0.000 A 
ATOM     29  C   UNL     1       0.254  12.685  21.386  0.00  0.00    +0.000 A 
ENDBRANCH  21  23
ENDBRANCH  18  19
ENDBRANCH  17  18
ENDBRANCH   4  17
TORSDOF 8
ENDMDL
