MODEL 1
REMARK VINA RESULT:      -7.9      0.000      0.000
REMARK  Name = 
REMARK  5 active torsions:
REMARK  status: ('A' for Active; 'I' for Inactive)
REMARK    1  A    between atoms: C_1  and  C_2
REMARK    2  A    between atoms: C_2  and  C_3
REMARK    3  A    between atoms: C_2  and  N_4
REMARK    4  A    between atoms: C_5  and  C_6
REMARK    5  A    between atoms: C_9  and  N_10
REMARK                            x       y       z     vdW  Elec       q    Type
REMARK                         _______ _______ _______ _____ _____    ______ ____
ROOT
ATOM      1  N   UNL     1       5.857   5.141  17.409  0.00  0.00    +0.000 N 
ATOM      2  C   UNL     1       5.169   4.648  16.289  0.00  0.00    +0.000 A 
ATOM      3  N   UNL     1       3.940   4.224  16.345  0.00  0.00    +0.000 NA
ATOM      4  C   UNL     1       3.251   4.247  17.559  0.00  0.00    +0.000 A 
ATOM      5  C   UNL     1       1.926   3.805  17.609  0.00  0.00    +0.000 A 
ATOM      6  C   UNL     1       1.231   3.758  18.824  0.00  0.00    +0.000 A 
ATOM      7  C   UNL     1       1.853   4.162  20.004  0.00  0.00    +0.000 A 
ATOM      8  C   UNL     1       3.165   4.621  19.962  0.00  0.00    +0.000 A 
ATOM      9  C   UNL     1       3.850   4.660  18.740  0.00  0.00    +0.000 A 
ATOM     10  C   UNL     1       5.240   5.120  18.666  0.00  0.00    +0.000 A 
ATOM     11  O   UNL     1       5.786   5.439  19.720  0.00  0.00    +0.000 OA
ENDROOT
BRANCH   2  12
ATOM     12  C   UNL     1       5.797   4.517  14.976  0.00  0.00    +0.000 A 
ATOM     13  C   UNL     1       5.704   3.499  14.031  0.00  0.00    +0.000 A 
ATOM     14  C   UNL     1       6.598   3.815  12.973  0.00  0.00    +0.000 A 
ATOM     15  C   UNL     1       7.136   5.028  13.314  0.00  0.00    +0.000 A 
ATOM     16  O   UNL     1       6.611   5.494  14.473  0.00  0.00    +0.000 OA
BRANCH  15  17
ATOM     17  N   UNL     1       8.153   5.837  12.716  0.00  0.00    +0.000 N 
ATOM     18  O   UNL     1       9.207   5.954  13.355  0.00  0.00    +0.000 OA
ATOM     19  O   UNL     1       7.896   6.377  11.632  0.00  0.00    +0.000 OA
ENDBRANCH  15  17
ENDBRANCH   2  12
BRANCH   1  21
ATOM     20  C   UNL     1       7.407   7.107  17.602  0.00  0.00    +0.000 C 
ATOM     21  C   UNL     1       7.272   5.593  17.400  0.00  0.00    +0.000 C 
ATOM     22  C   UNL     1       8.154   4.783  18.355  0.00  0.00    +0.000 C 
ENDBRANCH   1  21
TORSDOF 3
ENDMDL
MODEL 2
REMARK VINA RESULT:      -7.9      1.815      2.037
REMARK  Name = 
REMARK  5 active torsions:
REMARK  status: ('A' for Active; 'I' for Inactive)
REMARK    1  A    between atoms: C_1  and  C_2
REMARK    2  A    between atoms: C_2  and  C_3
REMARK    3  A    between atoms: C_2  and  N_4
REMARK    4  A    between atoms: C_5  and  C_6
REMARK    5  A    between atoms: C_9  and  N_10
REMARK                            x       y       z     vdW  Elec       q    Type
REMARK                         _______ _______ _______ _____ _____    ______ ____
ROOT
ATOM      1  N   UNL     1       5.771   5.066  17.431  0.00  0.00    +0.000 N 
ATOM      2  C   UNL     1       5.066   4.507  16.353  0.00  0.00    +0.000 A 
ATOM      3  N   UNL     1       3.839   4.086  16.453  0.00  0.00    +0.000 NA
ATOM      4  C   UNL     1       3.170   4.180  17.675  0.00  0.00    +0.000 A 
ATOM      5  C   UNL     1       1.847   3.740  17.772  0.00  0.00    +0.000 A 
ATOM      6  C   UNL     1       1.170   3.764  18.998  0.00  0.00    +0.000 A 
ATOM      7  C   UNL     1       1.810   4.237  20.142  0.00  0.00    +0.000 A 
ATOM      8  C   UNL     1       3.121   4.696  20.052  0.00  0.00    +0.000 A 
ATOM      9  C   UNL     1       3.786   4.663  18.819  0.00  0.00    +0.000 A 
ATOM     10  C   UNL     1       5.174   5.119  18.697  0.00  0.00    +0.000 A 
ATOM     11  O   UNL     1       5.735   5.501  19.721  0.00  0.00    +0.000 OA
ENDROOT
BRANCH   2  12
ATOM     12  C   UNL     1       5.674   4.299  15.040  0.00  0.00    +0.000 A 
ATOM     13  C   UNL     1       6.845   4.819  14.498  0.00  0.00    +0.000 A 
ATOM     14  C   UNL     1       6.922   4.384  13.147  0.00  0.00    +0.000 A 
ATOM     15  C   UNL     1       5.822   3.584  12.970  0.00  0.00    +0.000 A 
ATOM     16  O   UNL     1       5.107   3.466  14.115  0.00  0.00    +0.000 OA
BRANCH  15  17
ATOM     17  N   UNL     1       5.286   2.920  11.823  0.00  0.00    +0.000 N 
ATOM     18  O   UNL     1       4.235   3.386  11.362  0.00  0.00    +0.000 OA
ATOM     19  O   UNL     1       5.887   1.924  11.401  0.00  0.00    +0.000 OA
ENDBRANCH  15  17
ENDBRANCH   2  12
BRANCH   1  21
ATOM     20  C   UNL     1       7.323   7.037  17.536  0.00  0.00    +0.000 C 
ATOM     21  C   UNL     1       7.184   5.519  17.373  0.00  0.00    +0.000 C 
ATOM     22  C   UNL     1       8.093   4.731  18.322  0.00  0.00    +0.000 C 
ENDBRANCH   1  21
TORSDOF 3
ENDMDL
MODEL 3
REMARK VINA RESULT:      -7.6      3.788      7.387
REMARK  Name = 
REMARK  5 active torsions:
REMARK  status: ('A' for Active; 'I' for Inactive)
REMARK    1  A    between atoms: C_1  and  C_2
REMARK    2  A    between atoms: C_2  and  C_3
REMARK    3  A    between atoms: C_2  and  N_4
REMARK    4  A    between atoms: C_5  and  C_6
REMARK    5  A    between atoms: C_9  and  N_10
REMARK                            x       y       z     vdW  Elec       q    Type
REMARK                         _______ _______ _______ _____ _____    ______ ____
ROOT
ATOM      1  N   UNL     1       2.604   5.192  18.914  0.00  0.00    +0.000 N 
ATOM      2  C   UNL     1       2.770   6.524  18.505  0.00  0.00    +0.000 A 
ATOM      3  N   UNL     1       3.612   6.879  17.579  0.00  0.00    +0.000 NA
ATOM      4  C   UNL     1       4.400   5.914  16.948  0.00  0.00    +0.000 A 
ATOM      5  C   UNL     1       5.292   6.300  15.944  0.00  0.00    +0.000 A 
ATOM      6  C   UNL     1       6.138   5.364  15.337  0.00  0.00    +0.000 A 
ATOM      7  C   UNL     1       6.097   4.027  15.726  0.00  0.00    +0.000 A 
ATOM      8  C   UNL     1       5.200   3.628  16.712  0.00  0.00    +0.000 A 
ATOM      9  C   UNL     1       4.360   4.577  17.311  0.00  0.00    +0.000 A 
ATOM     10  C   UNL     1       3.418   4.192  18.367  0.00  0.00    +0.000 A 
ATOM     11  O   UNL     1       3.419   3.015  18.723  0.00  0.00    +0.000 OA
ENDROOT
BRANCH   2  12
ATOM     12  C   UNL     1       2.049   7.633  19.127  0.00  0.00    +0.000 A 
ATOM     13  C   UNL     1       1.561   8.813  18.574  0.00  0.00    +0.000 A 
ATOM     14  C   UNL     1       1.033   9.597  19.634  0.00  0.00    +0.000 A 
ATOM     15  C   UNL     1       1.184   8.823  20.756  0.00  0.00    +0.000 A 
ATOM     16  O   UNL     1       1.723   7.616  20.455  0.00  0.00    +0.000 OA
BRANCH  15  17
ATOM     17  N   UNL     1       0.933   9.071  22.142  0.00  0.00    +0.000 N 
ATOM     18  O   UNL     1      -0.230   8.897  22.528  0.00  0.00    +0.000 OA
ATOM     19  O   UNL     1       1.878   9.466  22.836  0.00  0.00    +0.000 OA
ENDBRANCH  15  17
ENDBRANCH   2  12
BRANCH   1  21
ATOM     20  C   UNL     1       0.750   3.621  19.546  0.00  0.00    +0.000 C 
ATOM     21  C   UNL     1       1.688   4.747  19.996  0.00  0.00    +0.000 C 
ATOM     22  C   UNL     1       2.428   4.424  21.297  0.00  0.00    +0.000 C 
ENDBRANCH   1  21
TORSDOF 3
ENDMDL
MODEL 4
REMARK VINA RESULT:      -7.6      2.013      6.268
REMARK  Name = 
REMARK  5 active torsions:
REMARK  status: ('A' for Active; 'I' for Inactive)
REMARK    1  A    between atoms: C_1  and  C_2
REMARK    2  A    between atoms: C_2  and  C_3
REMARK    3  A    between atoms: C_2  and  N_4
REMARK    4  A    between atoms: C_5  and  C_6
REMARK    5  A    between atoms: C_9  and  N_10
REMARK                            x       y       z     vdW  Elec       q    Type
REMARK                         _______ _______ _______ _____ _____    ______ ____
ROOT
ATOM      1  N   UNL     1       6.313   5.281  16.875  0.00  0.00    +0.000 N 
ATOM      2  C   UNL     1       5.239   4.382  16.785  0.00  0.00    +0.000 A 
ATOM      3  N   UNL     1       4.949   3.735  15.695  0.00  0.00    +0.000 NA
ATOM      4  C   UNL     1       5.720   3.926  14.546  0.00  0.00    +0.000 A 
ATOM      5  C   UNL     1       5.411   3.217  13.382  0.00  0.00    +0.000 A 
ATOM      6  C   UNL     1       6.128   3.433  12.199  0.00  0.00    +0.000 A 
ATOM      7  C   UNL     1       7.169   4.359  12.170  0.00  0.00    +0.000 A 
ATOM      8  C   UNL     1       7.496   5.057  13.328  0.00  0.00    +0.000 A 
ATOM      9  C   UNL     1       6.769   4.831  14.504  0.00  0.00    +0.000 A 
ATOM     10  C   UNL     1       7.077   5.565  15.735  0.00  0.00    +0.000 A 
ATOM     11  O   UNL     1       7.974   6.404  15.684  0.00  0.00    +0.000 OA
ENDROOT
BRANCH   2  12
ATOM     12  C   UNL     1       4.322   4.139  17.897  0.00  0.00    +0.000 A 
ATOM     13  C   UNL     1       3.107   4.741  18.210  0.00  0.00    +0.000 A 
ATOM     14  C   UNL     1       2.675   4.212  19.455  0.00  0.00    +0.000 A 
ATOM     15  C   UNL     1       3.625   3.284  19.795  0.00  0.00    +0.000 A 
ATOM     16  O   UNL     1       4.577   3.178  18.836  0.00  0.00    +0.000 OA
BRANCH  15  17
ATOM     17  N   UNL     1       3.813   2.476  20.959  0.00  0.00    +0.000 N 
ATOM     18  O   UNL     1       2.893   2.483  21.787  0.00  0.00    +0.000 OA
ATOM     19  O   UNL     1       4.882   1.861  21.066  0.00  0.00    +0.000 OA
ENDBRANCH  15  17
ENDBRANCH   2  12
BRANCH   1  21
ATOM     20  C   UNL     1       7.777   5.431  18.910  0.00  0.00    +0.000 C 
ATOM     21  C   UNL     1       6.655   6.072  18.085  0.00  0.00    +0.000 C 
ATOM     22  C   UNL     1       6.915   7.548  17.768  0.00  0.00    +0.000 C 
ENDBRANCH   1  21
TORSDOF 3
ENDMDL
MODEL 5
REMARK VINA RESULT:      -7.5      3.954      7.184
REMARK  Name = 
REMARK  5 active torsions:
REMARK  status: ('A' for Active; 'I' for Inactive)
REMARK    1  A    between atoms: C_1  and  C_2
REMARK    2  A    between atoms: C_2  and  C_3
REMARK    3  A    between atoms: C_2  and  N_4
REMARK    4  A    between atoms: C_5  and  C_6
REMARK    5  A    between atoms: C_9  and  N_10
REMARK                            x       y       z     vdW  Elec       q    Type
REMARK                         _______ _______ _______ _____ _____    ______ ____
ROOT
ATOM      1  N   UNL     1       2.489   5.040  19.109  0.00  0.00    +0.000 N 
ATOM      2  C   UNL     1       2.673   6.405  18.836  0.00  0.00    +0.000 A 
ATOM      3  N   UNL     1       3.485   6.839  17.917  0.00  0.00    +0.000 NA
ATOM      4  C   UNL     1       4.221   5.930  17.154  0.00  0.00    +0.000 A 
ATOM      5  C   UNL     1       5.081   6.402  16.158  0.00  0.00    +0.000 A 
ATOM      6  C   UNL     1       5.878   5.518  15.420  0.00  0.00    +0.000 A 
ATOM      7  C   UNL     1       5.817   4.148  15.667  0.00  0.00    +0.000 A 
ATOM      8  C   UNL     1       4.951   3.666  16.643  0.00  0.00    +0.000 A 
ATOM      9  C   UNL     1       4.161   4.562  17.375  0.00  0.00    +0.000 A 
ATOM     10  C   UNL     1       3.254   4.087  18.424  0.00  0.00    +0.000 A 
ATOM     11  O   UNL     1       3.239   2.880  18.653  0.00  0.00    +0.000 OA
ENDROOT
BRANCH   2  12
ATOM     12  C   UNL     1       2.006   7.456  19.602  0.00  0.00    +0.000 A 
ATOM     13  C   UNL     1       1.624   7.490  20.939  0.00  0.00    +0.000 A 
ATOM     14  C   UNL     1       0.917   8.704  21.152  0.00  0.00    +0.000 A 
ATOM     15  C   UNL     1       0.961   9.355  19.946  0.00  0.00    +0.000 A 
ATOM     16  O   UNL     1       1.673   8.653  19.031  0.00  0.00    +0.000 OA
BRANCH  15  17
ATOM     17  N   UNL     1       0.369  10.572  19.483  0.00  0.00    +0.000 N 
ATOM     18  O   UNL     1       1.137  11.393  18.965  0.00  0.00    +0.000 OA
ATOM     19  O   UNL     1      -0.847  10.724  19.659  0.00  0.00    +0.000 OA
ENDBRANCH  15  17
ENDBRANCH   2  12
BRANCH   1  21
ATOM     20  C   UNL     1       0.653   3.418  19.660  0.00  0.00    +0.000 C 
ATOM     21  C   UNL     1       1.606   4.503  20.176  0.00  0.00    +0.000 C 
ATOM     22  C   UNL     1       2.387   4.069  21.420  0.00  0.00    +0.000 C 
ENDBRANCH   1  21
TORSDOF 3
ENDMDL
MODEL 6
REMARK VINA RESULT:      -7.5      1.965      2.470
REMARK  Name = 
REMARK  5 active torsions:
REMARK  status: ('A' for Active; 'I' for Inactive)
REMARK    1  A    between atoms: C_1  and  C_2
REMARK    2  A    between atoms: C_2  and  C_3
REMARK    3  A    between atoms: C_2  and  N_4
REMARK    4  A    between atoms: C_5  and  C_6
REMARK    5  A    between atoms: C_9  and  N_10
REMARK                            x       y       z     vdW  Elec       q    Type
REMARK                         _______ _______ _______ _____ _____    ______ ____
ROOT
ATOM      1  N   UNL     1       4.041   5.699  17.488  0.00  0.00    +0.000 N 
ATOM      2  C   UNL     1       4.358   4.440  16.954  0.00  0.00    +0.000 A 
ATOM      3  N   UNL     1       3.801   3.338  17.364  0.00  0.00    +0.000 NA
ATOM      4  C   UNL     1       2.844   3.379  18.380  0.00  0.00    +0.000 A 
ATOM      5  C   UNL     1       2.239   2.193  18.805  0.00  0.00    +0.000 A 
ATOM      6  C   UNL     1       1.321   2.195  19.863  0.00  0.00    +0.000 A 
ATOM      7  C   UNL     1       0.994   3.389  20.504  0.00  0.00    +0.000 A 
ATOM      8  C   UNL     1       1.576   4.577  20.076  0.00  0.00    +0.000 A 
ATOM      9  C   UNL     1       2.494   4.559  19.017  0.00  0.00    +0.000 A 
ATOM     10  C   UNL     1       3.141   5.792  18.557  0.00  0.00    +0.000 A 
ATOM     11  O   UNL     1       2.867   6.831  19.155  0.00  0.00    +0.000 OA
ENDROOT
BRANCH   2  12
ATOM     12  C   UNL     1       5.385   4.257  15.930  0.00  0.00    +0.000 A 
ATOM     13  C   UNL     1       6.769   4.379  16.011  0.00  0.00    +0.000 A 
ATOM     14  C   UNL     1       7.291   4.199  14.702  0.00  0.00    +0.000 A 
ATOM     15  C   UNL     1       6.200   3.927  13.919  0.00  0.00    +0.000 A 
ATOM     16  O   UNL     1       5.061   3.886  14.654  0.00  0.00    +0.000 OA
BRANCH  15  17
ATOM     17  N   UNL     1       6.044   3.737  12.510  0.00  0.00    +0.000 N 
ATOM     18  O   UNL     1       4.921   3.385  12.125  0.00  0.00    +0.000 OA
ATOM     19  O   UNL     1       7.039   3.907  11.793  0.00  0.00    +0.000 OA
ENDBRANCH  15  17
ENDBRANCH   2  12
BRANCH   1  21
ATOM     20  C   UNL     1       6.081   7.150  17.683  0.00  0.00    +0.000 C 
ATOM     21  C   UNL     1       4.682   6.976  17.081  0.00  0.00    +0.000 C 
ATOM     22  C   UNL     1       4.653   7.190  15.564  0.00  0.00    +0.000 C 
ENDBRANCH   1  21
TORSDOF 3
ENDMDL
MODEL 7
REMARK VINA RESULT:      -7.5      2.098      6.297
REMARK  Name = 
REMARK  5 active torsions:
REMARK  status: ('A' for Active; 'I' for Inactive)
REMARK    1  A    between atoms: C_1  and  C_2
REMARK    2  A    between atoms: C_2  and  C_3
REMARK    3  A    between atoms: C_2  and  N_4
REMARK    4  A    between atoms: C_5  and  C_6
REMARK    5  A    between atoms: C_9  and  N_10
REMARK                            x       y       z     vdW  Elec       q    Type
REMARK                         _______ _______ _______ _____ _____    ______ ____
ROOT
ATOM      1  N   UNL     1       5.810   5.172  16.973  0.00  0.00    +0.000 N 
ATOM      2  C   UNL     1       4.868   4.193  16.620  0.00  0.00    +0.000 A 
ATOM      3  N   UNL     1       4.846   3.622  15.452  0.00  0.00    +0.000 NA
ATOM      4  C   UNL     1       5.787   3.980  14.485  0.00  0.00    +0.000 A 
ATOM      5  C   UNL     1       5.767   3.352  13.236  0.00  0.00    +0.000 A 
ATOM      6  C   UNL     1       6.659   3.734  12.226  0.00  0.00    +0.000 A 
ATOM      7  C   UNL     1       7.587   4.747  12.458  0.00  0.00    +0.000 A 
ATOM      8  C   UNL     1       7.628   5.366  13.703  0.00  0.00    +0.000 A 
ATOM      9  C   UNL     1       6.728   4.974  14.703  0.00  0.00    +0.000 A 
ATOM     10  C   UNL     1       6.732   5.621  16.019  0.00  0.00    +0.000 A 
ATOM     11  O   UNL     1       7.534   6.536  16.196  0.00  0.00    +0.000 OA
ENDROOT
BRANCH   2  12
ATOM     12  C   UNL     1       3.796   3.774  17.521  0.00  0.00    +0.000 A 
ATOM     13  C   UNL     1       2.414   3.860  17.377  0.00  0.00    +0.000 A 
ATOM     14  C   UNL     1       1.828   3.406  18.589  0.00  0.00    +0.000 A 
ATOM     15  C   UNL     1       2.886   3.023  19.372  0.00  0.00    +0.000 A 
ATOM     16  O   UNL     1       4.065   3.169  18.718  0.00  0.00    +0.000 OA
BRANCH  15  17
ATOM     17  N   UNL     1       2.972   2.564  20.724  0.00  0.00    +0.000 N 
ATOM     18  O   UNL     1       1.932   2.632  21.393  0.00  0.00    +0.000 OA
ATOM     19  O   UNL     1       4.072   2.167  21.128  0.00  0.00    +0.000 OA
ENDBRANCH  15  17
ENDBRANCH   2  12
BRANCH   1  21
ATOM     20  C   UNL     1       4.479   6.448  18.676  0.00  0.00    +0.000 C 
ATOM     21  C   UNL     1       5.846   5.880  18.278  0.00  0.00    +0.000 C 
ATOM     22  C   UNL     1       6.489   5.039  19.385  0.00  0.00    +0.000 C 
ENDBRANCH   1  21
TORSDOF 3
ENDMDL
MODEL 8
REMARK VINA RESULT:      -7.3      3.384      4.461
REMARK  Name = 
REMARK  5 active torsions:
REMARK  status: ('A' for Active; 'I' for Inactive)
REMARK    1  A    between atoms: C_1  and  C_2
REMARK    2  A    between atoms: C_2  and  C_3
REMARK    3  A    between atoms: C_2  and  N_4
REMARK    4  A    between atoms: C_5  and  C_6
REMARK    5  A    between atoms: C_9  and  N_10
REMARK                            x       y       z     vdW  Elec       q    Type
REMARK                         _______ _______ _______ _____ _____    ______ ____
ROOT
ATOM      1  N   UNL     1       2.867   5.902  19.395  0.00  0.00    +0.000 N 
ATOM      2  C   UNL     1       3.358   6.350  18.159  0.00  0.00    +0.000 A 
ATOM      3  N   UNL     1       3.097   7.532  17.681  0.00  0.00    +0.000 NA
ATOM      4  C   UNL     1       2.294   8.414  18.408  0.00  0.00    +0.000 A 
ATOM      5  C   UNL     1       2.030   9.687  17.897  0.00  0.00    +0.000 A 
ATOM      6  C   UNL     1       1.179  10.570  18.573  0.00  0.00    +0.000 A 
ATOM      7  C   UNL     1       0.588  10.189  19.776  0.00  0.00    +0.000 A 
ATOM      8  C   UNL     1       0.859   8.931  20.304  0.00  0.00    +0.000 A 
ATOM      9  C   UNL     1       1.711   8.057  19.614  0.00  0.00    +0.000 A 
ATOM     10  C   UNL     1       2.000   6.717  20.134  0.00  0.00    +0.000 A 
ATOM     11  O   UNL     1       1.443   6.384  21.178  0.00  0.00    +0.000 OA
ENDROOT
BRANCH   2  12
ATOM     12  C   UNL     1       4.158   5.503  17.277  0.00  0.00    +0.000 A 
ATOM     13  C   UNL     1       3.802   4.372  16.548  0.00  0.00    +0.000 A 
ATOM     14  C   UNL     1       4.981   3.865  15.940  0.00  0.00    +0.000 A 
ATOM     15  C   UNL     1       5.969   4.748  16.292  0.00  0.00    +0.000 A 
ATOM     16  O   UNL     1       5.476   5.772  17.031  0.00  0.00    +0.000 OA
BRANCH  15  17
ATOM     17  N   UNL     1       7.382   4.755  16.074  0.00  0.00    +0.000 N 
ATOM     18  O   UNL     1       7.770   5.262  15.013  0.00  0.00    +0.000 OA
ATOM     19  O   UNL     1       8.101   4.233  16.936  0.00  0.00    +0.000 OA
ENDBRANCH  15  17
ENDBRANCH   2  12
BRANCH   1  21
ATOM     20  C   UNL     1       2.127   3.503  19.408  0.00  0.00    +0.000 C 
ATOM     21  C   UNL     1       3.104   4.548  19.958  0.00  0.00    +0.000 C 
ATOM     22  C   UNL     1       4.569   4.113  19.846  0.00  0.00    +0.000 C 
ENDBRANCH   1  21
TORSDOF 3
ENDMDL
MODEL 9
REMARK VINA RESULT:      -7.2      2.633      4.114
REMARK  Name = 
REMARK  5 active torsions:
REMARK  status: ('A' for Active; 'I' for Inactive)
REMARK    1  A    between atoms: C_1  and  C_2
REMARK    2  A    between atoms: C_2  and  C_3
REMARK    3  A    between atoms: C_2  and  N_4
REMARK    4  A    between atoms: C_5  and  C_6
REMARK    5  A    between atoms: C_9  and  N_10
REMARK                            x       y       z     vdW  Elec       q    Type
REMARK                         _______ _______ _______ _____ _____    ______ ____
ROOT
ATOM      1  N   UNL     1       4.419   4.313  17.289  0.00  0.00    +0.000 N 
ATOM      2  C   UNL     1       4.988   4.752  18.495  0.00  0.00    +0.000 A 
ATOM      3  N   UNL     1       4.400   4.610  19.646  0.00  0.00    +0.000 NA
ATOM      4  C   UNL     1       3.146   4.002  19.717  0.00  0.00    +0.000 A 
ATOM      5  C   UNL     1       2.526   3.840  20.959  0.00  0.00    +0.000 A 
ATOM      6  C   UNL     1       1.242   3.289  21.054  0.00  0.00    +0.000 A 
ATOM      7  C   UNL     1       0.565   2.888  19.904  0.00  0.00    +0.000 A 
ATOM      8  C   UNL     1       1.180   3.027  18.664  0.00  0.00    +0.000 A 
ATOM      9  C   UNL     1       2.465   3.582  18.584  0.00  0.00    +0.000 A 
ATOM     10  C   UNL     1       3.132   3.760  17.291  0.00  0.00    +0.000 A 
ATOM     11  O   UNL     1       2.507   3.433  16.284  0.00  0.00    +0.000 OA
ENDROOT
BRANCH   2  12
ATOM     12  C   UNL     1       6.268   5.456  18.549  0.00  0.00    +0.000 A 
ATOM     13  C   UNL     1       7.493   5.057  19.075  0.00  0.00    +0.000 A 
ATOM     14  C   UNL     1       8.385   6.158  18.966  0.00  0.00    +0.000 A 
ATOM     15  C   UNL     1       7.663   7.136  18.332  0.00  0.00    +0.000 A 
ATOM     16  O   UNL     1       6.419   6.704  18.011  0.00  0.00    +0.000 OA
BRANCH  15  17
ATOM     17  N   UNL     1       7.958   8.498  18.008  0.00  0.00    +0.000 N 
ATOM     18  O   UNL     1       7.332   8.982  17.056  0.00  0.00    +0.000 OA
ATOM     19  O   UNL     1       8.828   9.073  18.674  0.00  0.00    +0.000 OA
ENDBRANCH  15  17
ENDBRANCH   2  12
BRANCH   1  21
ATOM     20  C   UNL     1       5.104   5.963  15.525  0.00  0.00    +0.000 C 
ATOM     21  C   UNL     1       5.034   4.492  15.949  0.00  0.00    +0.000 C 
ATOM     22  C   UNL     1       6.378   3.768  15.818  0.00  0.00    +0.000 C 
ENDBRANCH   1  21
TORSDOF 3
ENDMDL
