MODEL 1
REMARK VINA RESULT:      -8.9      0.000      0.000
REMARK  Name = 
REMARK  5 active torsions:
REMARK  status: ('A' for Active; 'I' for Inactive)
REMARK    1  A    between atoms: C_1  and  O_2
REMARK    2  A    between atoms: O_2  and  C_3
REMARK    3  A    between atoms: C_6  and  O_7
REMARK    4  A    between atoms: C_8  and  C_9
REMARK    5  A    between atoms: C_11  and  C_12
REMARK                            x       y       z     vdW  Elec       q    Type
REMARK                         _______ _______ _______ _____ _____    ______ ____
ROOT
ATOM      1  C   UNL     1       6.216   4.373  16.004  0.00  0.00    +0.000 A 
ATOM      2  C   UNL     1       4.983   4.199  16.595  0.00  0.00    +0.000 A 
ATOM      3  C   UNL     1       4.902   4.293  17.971  0.00  0.00    +0.000 A 
ATOM      4  N   UNL     1       6.001   4.497  18.718  0.00  0.00    +0.000 NA
ATOM      5  C   UNL     1       7.161   4.641  18.078  0.00  0.00    +0.000 A 
ATOM      6  N   UNL     1       8.281   4.902  18.844  0.00  0.00    +0.000 N 
ATOM      7  N   UNL     1       7.317   4.602  16.755  0.00  0.00    +0.000 NA
ATOM      8  H   UNL     1       7.986   5.326  19.714  0.00  0.00    +0.000 HD
ATOM      9  H   UNL     1       8.951   5.415  18.290  0.00  0.00    +0.000 HD
ENDROOT
BRANCH   3  10
ATOM     10  C   UNL     1       3.609   4.148  18.682  0.00  0.00    +0.000 A 
ATOM     11  C   UNL     1       3.008   5.290  19.268  0.00  0.00    +0.000 A 
ATOM     12  C   UNL     1       1.813   5.219  19.988  0.00  0.00    +0.000 A 
ATOM     13  C   UNL     1       1.163   4.002  20.126  0.00  0.00    +0.000 A 
ATOM     14  C   UNL     1       1.718   2.859  19.556  0.00  0.00    +0.000 A 
ATOM     15  C   UNL     1       2.931   2.922  18.853  0.00  0.00    +0.000 A 
ATOM     16 CL   UNL     1       3.550   1.403  18.290  0.00  0.00    +0.000 Cl
ENDBRANCH   3  10
BRANCH   1  21
ATOM     17  C   UNL     1       5.754   3.318  12.384  0.00  0.00    +0.000 A 
ATOM     18  C   UNL     1       6.739   4.054  11.734  0.00  0.00    +0.000 A 
ATOM     19  C   UNL     1       7.579   4.898  12.456  0.00  0.00    +0.000 A 
ATOM     20  C   UNL     1       7.429   5.005  13.842  0.00  0.00    +0.000 A 
ATOM     21  C   UNL     1       6.438   4.285  14.539  0.00  0.00    +0.000 A 
ATOM     22  C   UNL     1       5.608   3.439  13.767  0.00  0.00    +0.000 A 
BRANCH  17  24
ATOM     23  C   UNL     1       3.834   3.118  10.997  0.00  0.00    +0.000 C 
ATOM     24  O   UNL     1       4.999   2.526  11.562  0.00  0.00    +0.000 OA
ENDBRANCH  17  24
BRANCH  20  25
ATOM     25  O   UNL     1       8.294   5.827  14.517  0.00  0.00    +0.000 OA
ATOM     26  H   UNL     1       7.941   6.733  14.520  0.00  0.00    +0.000 HD
ENDBRANCH  20  25
ENDBRANCH   1  21
TORSDOF 4
ENDMDL
MODEL 2
REMARK VINA RESULT:      -8.9      1.131      1.521
REMARK  Name = 
REMARK  5 active torsions:
REMARK  status: ('A' for Active; 'I' for Inactive)
REMARK    1  A    between atoms: C_1  and  O_2
REMARK    2  A    between atoms: O_2  and  C_3
REMARK    3  A    between atoms: C_6  and  O_7
REMARK    4  A    between atoms: C_8  and  C_9
REMARK    5  A    between atoms: C_11  and  C_12
REMARK                            x       y       z     vdW  Elec       q    Type
REMARK                         _______ _______ _______ _____ _____    ______ ____
ROOT
ATOM      1  C   UNL     1       6.085   4.240  15.971  0.00  0.00    +0.000 A 
ATOM      2  C   UNL     1       4.862   3.927  16.525  0.00  0.00    +0.000 A 
ATOM      3  C   UNL     1       4.733   3.996  17.899  0.00  0.00    +0.000 A 
ATOM      4  N   UNL     1       5.783   4.309  18.679  0.00  0.00    +0.000 NA
ATOM      5  C   UNL     1       6.937   4.586  18.074  0.00  0.00    +0.000 A 
ATOM      6  N   UNL     1       8.001   4.957  18.874  0.00  0.00    +0.000 N 
ATOM      7  N   UNL     1       7.133   4.579  16.755  0.00  0.00    +0.000 NA
ATOM      8  H   UNL     1       7.637   5.337  19.738  0.00  0.00    +0.000 HD
ATOM      9  H   UNL     1       8.626   5.547  18.343  0.00  0.00    +0.000 HD
ENDROOT
BRANCH   3  10
ATOM     10  C   UNL     1       3.445   3.703  18.572  0.00  0.00    +0.000 A 
ATOM     11  C   UNL     1       2.956   2.373  18.584  0.00  0.00    +0.000 A 
ATOM     12  C   UNL     1       1.731   2.033  19.164  0.00  0.00    +0.000 A 
ATOM     13  C   UNL     1       0.962   3.012  19.775  0.00  0.00    +0.000 A 
ATOM     14  C   UNL     1       1.414   4.329  19.791  0.00  0.00    +0.000 A 
ATOM     15  C   UNL     1       2.633   4.679  19.189  0.00  0.00    +0.000 A 
ATOM     16 CL   UNL     1       3.014   6.371  19.198  0.00  0.00    +0.000 Cl
ENDBRANCH   3  10
BRANCH   1  21
ATOM     17  C   UNL     1       5.744   3.289  12.309  0.00  0.00    +0.000 A 
ATOM     18  C   UNL     1       6.749   4.042  11.714  0.00  0.00    +0.000 A 
ATOM     19  C   UNL     1       7.565   4.864  12.486  0.00  0.00    +0.000 A 
ATOM     20  C   UNL     1       7.369   4.932  13.869  0.00  0.00    +0.000 A 
ATOM     21  C   UNL     1       6.355   4.194  14.512  0.00  0.00    +0.000 A 
ATOM     22  C   UNL     1       5.551   3.370  13.690  0.00  0.00    +0.000 A 
BRANCH  17  24
ATOM     23  C   UNL     1       3.800   3.082  10.957  0.00  0.00    +0.000 C 
ATOM     24  O   UNL     1       5.015   2.521  11.441  0.00  0.00    +0.000 OA
ENDBRANCH  17  24
BRANCH  20  25
ATOM     25  O   UNL     1       8.211   5.733  14.596  0.00  0.00    +0.000 OA
ATOM     26  H   UNL     1       9.131   5.453  14.446  0.00  0.00    +0.000 HD
ENDBRANCH  20  25
ENDBRANCH   1  21
TORSDOF 4
ENDMDL
MODEL 3
REMARK VINA RESULT:      -8.6      0.970      1.034
REMARK  Name = 
REMARK  5 active torsions:
REMARK  status: ('A' for Active; 'I' for Inactive)
REMARK    1  A    between atoms: C_1  and  O_2
REMARK    2  A    between atoms: O_2  and  C_3
REMARK    3  A    between atoms: C_6  and  O_7
REMARK    4  A    between atoms: C_8  and  C_9
REMARK    5  A    between atoms: C_11  and  C_12
REMARK                            x       y       z     vdW  Elec       q    Type
REMARK                         _______ _______ _______ _____ _____    ______ ____
ROOT
ATOM      1  C   UNL     1       6.209   4.243  15.939  0.00  0.00    +0.000 A 
ATOM      2  C   UNL     1       4.989   3.905  16.486  0.00  0.00    +0.000 A 
ATOM      3  C   UNL     1       4.844   3.991  17.857  0.00  0.00    +0.000 A 
ATOM      4  N   UNL     1       5.878   4.343  18.643  0.00  0.00    +0.000 NA
ATOM      5  C   UNL     1       7.030   4.642  18.045  0.00  0.00    +0.000 A 
ATOM      6  N   UNL     1       8.075   5.053  18.850  0.00  0.00    +0.000 N 
ATOM      7  N   UNL     1       7.239   4.621  16.729  0.00  0.00    +0.000 NA
ATOM      8  H   UNL     1       7.693   5.435  19.705  0.00  0.00    +0.000 HD
ATOM      9  H   UNL     1       8.690   5.651  18.317  0.00  0.00    +0.000 HD
ENDROOT
BRANCH   3  10
ATOM     10  C   UNL     1       3.558   3.673  18.522  0.00  0.00    +0.000 A 
ATOM     11  C   UNL     1       2.378   4.334  18.099  0.00  0.00    +0.000 A 
ATOM     12  C   UNL     1       1.139   4.115  18.707  0.00  0.00    +0.000 A 
ATOM     13  C   UNL     1       1.034   3.204  19.748  0.00  0.00    +0.000 A 
ATOM     14  C   UNL     1       2.171   2.528  20.185  0.00  0.00    +0.000 A 
ATOM     15  C   UNL     1       3.421   2.764  19.592  0.00  0.00    +0.000 A 
ATOM     16 CL   UNL     1       4.760   1.927  20.310  0.00  0.00    +0.000 Cl
ENDBRANCH   3  10
BRANCH   1  21
ATOM     17  C   UNL     1       6.014   3.143  12.308  0.00  0.00    +0.000 A 
ATOM     18  C   UNL     1       6.928   3.992  11.693  0.00  0.00    +0.000 A 
ATOM     19  C   UNL     1       7.633   4.929  12.443  0.00  0.00    +0.000 A 
ATOM     20  C   UNL     1       7.418   5.018  13.822  0.00  0.00    +0.000 A 
ATOM     21  C   UNL     1       6.495   4.183  14.484  0.00  0.00    +0.000 A 
ATOM     22  C   UNL     1       5.802   3.244  13.685  0.00  0.00    +0.000 A 
BRANCH  17  24
ATOM     23  C   UNL     1       6.118   1.097  11.103  0.00  0.00    +0.000 C 
ATOM     24  O   UNL     1       5.390   2.266  11.462  0.00  0.00    +0.000 OA
ENDBRANCH  17  24
BRANCH  20  25
ATOM     25  O   UNL     1       8.153   5.936  14.526  0.00  0.00    +0.000 OA
ATOM     26  H   UNL     1       7.732   6.091  15.390  0.00  0.00    +0.000 HD
ENDBRANCH  20  25
ENDBRANCH   1  21
TORSDOF 4
ENDMDL
MODEL 4
REMARK VINA RESULT:      -8.2      1.557      1.808
REMARK  Name = 
REMARK  5 active torsions:
REMARK  status: ('A' for Active; 'I' for Inactive)
REMARK    1  A    between atoms: C_1  and  O_2
REMARK    2  A    between atoms: O_2  and  C_3
REMARK    3  A    between atoms: C_6  and  O_7
REMARK    4  A    between atoms: C_8  and  C_9
REMARK    5  A    between atoms: C_11  and  C_12
REMARK                            x       y       z     vdW  Elec       q    Type
REMARK                         _______ _______ _______ _____ _____    ______ ____
ROOT
ATOM      1  C   UNL     1       6.253   5.097  15.572  0.00  0.00    +0.000 A 
ATOM      2  C   UNL     1       5.297   4.552  16.403  0.00  0.00    +0.000 A 
ATOM      3  C   UNL     1       5.198   5.043  17.690  0.00  0.00    +0.000 A 
ATOM      4  N   UNL     1       6.043   5.989  18.139  0.00  0.00    +0.000 NA
ATOM      5  C   UNL     1       6.951   6.457  17.284  0.00  0.00    +0.000 A 
ATOM      6  N   UNL     1       7.784   7.465  17.731  0.00  0.00    +0.000 N 
ATOM      7  N   UNL     1       7.086   6.064  16.017  0.00  0.00    +0.000 NA
ATOM      8  H   UNL     1       7.324   7.952  18.488  0.00  0.00    +0.000 HD
ATOM      9  H   UNL     1       8.083   8.023  16.943  0.00  0.00    +0.000 HD
ENDROOT
BRANCH   3  10
ATOM     10  C   UNL     1       4.178   4.533  18.638  0.00  0.00    +0.000 A 
ATOM     11  C   UNL     1       4.391   3.288  19.281  0.00  0.00    +0.000 A 
ATOM     12  C   UNL     1       3.454   2.728  20.153  0.00  0.00    +0.000 A 
ATOM     13  C   UNL     1       2.279   3.409  20.433  0.00  0.00    +0.000 A 
ATOM     14  C   UNL     1       2.039   4.641  19.828  0.00  0.00    +0.000 A 
ATOM     15  C   UNL     1       2.967   5.195  18.932  0.00  0.00    +0.000 A 
ATOM     16 CL   UNL     1       2.485   6.681  18.179  0.00  0.00    +0.000 Cl
ENDBRANCH   3  10
BRANCH   1  21
ATOM     17  C   UNL     1       5.652   3.343  12.256  0.00  0.00    +0.000 A 
ATOM     18  C   UNL     1       6.746   3.753  11.503  0.00  0.00    +0.000 A 
ATOM     19  C   UNL     1       7.707   4.595  12.057  0.00  0.00    +0.000 A 
ATOM     20  C   UNL     1       7.566   5.032  13.378  0.00  0.00    +0.000 A 
ATOM     21  C   UNL     1       6.468   4.649  14.173  0.00  0.00    +0.000 A 
ATOM     22  C   UNL     1       5.517   3.791  13.572  0.00  0.00    +0.000 A 
BRANCH  17  24
ATOM     23  C   UNL     1       3.681   3.133  10.945  0.00  0.00    +0.000 C 
ATOM     24  O   UNL     1       4.784   2.514  11.598  0.00  0.00    +0.000 OA
ENDBRANCH  17  24
BRANCH  20  25
ATOM     25  O   UNL     1       8.548   5.839  13.892  0.00  0.00    +0.000 OA
ATOM     26  H   UNL     1       9.042   6.250  13.162  0.00  0.00    +0.000 HD
ENDBRANCH  20  25
ENDBRANCH   1  21
TORSDOF 4
ENDMDL
MODEL 5
REMARK VINA RESULT:      -8.1      3.536      5.143
REMARK  Name = 
REMARK  5 active torsions:
REMARK  status: ('A' for Active; 'I' for Inactive)
REMARK    1  A    between atoms: C_1  and  O_2
REMARK    2  A    between atoms: O_2  and  C_3
REMARK    3  A    between atoms: C_6  and  O_7
REMARK    4  A    between atoms: C_8  and  C_9
REMARK    5  A    between atoms: C_11  and  C_12
REMARK                            x       y       z     vdW  Elec       q    Type
REMARK                         _______ _______ _______ _____ _____    ______ ____
ROOT
ATOM      1  C   UNL     1       3.814   5.360  19.077  0.00  0.00    +0.000 A 
ATOM      2  C   UNL     1       3.235   6.606  19.181  0.00  0.00    +0.000 A 
ATOM      3  C   UNL     1       2.219   6.777  20.102  0.00  0.00    +0.000 A 
ATOM      4  N   UNL     1       1.770   5.745  20.839  0.00  0.00    +0.000 NA
ATOM      5  C   UNL     1       2.369   4.566  20.673  0.00  0.00    +0.000 A 
ATOM      6  N   UNL     1       1.941   3.520  21.468  0.00  0.00    +0.000 N 
ATOM      7  N   UNL     1       3.379   4.329  19.836  0.00  0.00    +0.000 NA
ATOM      8  H   UNL     1       1.525   3.902  22.308  0.00  0.00    +0.000 HD
ATOM      9  H   UNL     1       2.700   2.864  21.592  0.00  0.00    +0.000 HD
ENDROOT
BRANCH   3  10
ATOM     10  C   UNL     1       1.563   8.092  20.297  0.00  0.00    +0.000 A 
ATOM     11  C   UNL     1       1.086   8.444  21.584  0.00  0.00    +0.000 A 
ATOM     12  C   UNL     1       0.422   9.648  21.832  0.00  0.00    +0.000 A 
ATOM     13  C   UNL     1       0.234  10.556  20.801  0.00  0.00    +0.000 A 
ATOM     14  C   UNL     1       0.698  10.250  19.524  0.00  0.00    +0.000 A 
ATOM     15  C   UNL     1       1.344   9.030  19.266  0.00  0.00    +0.000 A 
ATOM     16 CL   UNL     1       1.773   8.745  17.610  0.00  0.00    +0.000 Cl
ENDBRANCH   3  10
BRANCH   1  21
ATOM     17  C   UNL     1       5.563   4.527  15.809  0.00  0.00    +0.000 A 
ATOM     18  C   UNL     1       6.897   4.468  16.195  0.00  0.00    +0.000 A 
ATOM     19  C   UNL     1       7.257   4.684  17.523  0.00  0.00    +0.000 A 
ATOM     20  C   UNL     1       6.268   4.965  18.471  0.00  0.00    +0.000 A 
ATOM     21  C   UNL     1       4.905   5.045  18.121  0.00  0.00    +0.000 A 
ATOM     22  C   UNL     1       4.585   4.816  16.763  0.00  0.00    +0.000 A 
BRANCH  17  24
ATOM     23  C   UNL     1       6.489   4.022  13.679  0.00  0.00    +0.000 C 
ATOM     24  O   UNL     1       5.343   4.293  14.478  0.00  0.00    +0.000 OA
ENDBRANCH  17  24
BRANCH  20  25
ATOM     25  O   UNL     1       6.663   5.145  19.772  0.00  0.00    +0.000 OA
ATOM     26  H   UNL     1       6.312   5.991  20.100  0.00  0.00    +0.000 HD
ENDBRANCH  20  25
ENDBRANCH   1  21
TORSDOF 4
ENDMDL
MODEL 6
REMARK VINA RESULT:      -8.0      3.770      5.793
REMARK  Name = 
REMARK  5 active torsions:
REMARK  status: ('A' for Active; 'I' for Inactive)
REMARK    1  A    between atoms: C_1  and  O_2
REMARK    2  A    between atoms: O_2  and  C_3
REMARK    3  A    between atoms: C_6  and  O_7
REMARK    4  A    between atoms: C_8  and  C_9
REMARK    5  A    between atoms: C_11  and  C_12
REMARK                            x       y       z     vdW  Elec       q    Type
REMARK                         _______ _______ _______ _____ _____    ______ ____
ROOT
ATOM      1  C   UNL     1       3.493   5.595  18.929  0.00  0.00    +0.000 A 
ATOM      2  C   UNL     1       2.957   6.843  19.164  0.00  0.00    +0.000 A 
ATOM      3  C   UNL     1       1.997   6.963  20.150  0.00  0.00    +0.000 A 
ATOM      4  N   UNL     1       1.559   5.887  20.827  0.00  0.00    +0.000 NA
ATOM      5  C   UNL     1       2.114   4.711  20.536  0.00  0.00    +0.000 A 
ATOM      6  N   UNL     1       1.700   3.614  21.268  0.00  0.00    +0.000 N 
ATOM      7  N   UNL     1       3.070   4.518  19.627  0.00  0.00    +0.000 NA
ATOM      8  H   UNL     1       1.341   3.937  22.157  0.00  0.00    +0.000 HD
ATOM      9  H   UNL     1       2.445   2.933  21.297  0.00  0.00    +0.000 HD
ENDROOT
BRANCH   3  10
ATOM     10  C   UNL     1       1.391   8.274  20.486  0.00  0.00    +0.000 A 
ATOM     11  C   UNL     1       1.036   8.550  21.830  0.00  0.00    +0.000 A 
ATOM     12  C   UNL     1       0.423   9.746  22.211  0.00  0.00    +0.000 A 
ATOM     13  C   UNL     1       0.167  10.722  21.260  0.00  0.00    +0.000 A 
ATOM     14  C   UNL     1       0.510  10.492  19.930  0.00  0.00    +0.000 A 
ATOM     15  C   UNL     1       1.103   9.280  19.539  0.00  0.00    +0.000 A 
ATOM     16 CL   UNL     1       1.379   9.096  17.837  0.00  0.00    +0.000 Cl
ENDBRANCH   3  10
BRANCH   1  21
ATOM     17  C   UNL     1       6.615   6.035  16.809  0.00  0.00    +0.000 A 
ATOM     18  C   UNL     1       6.563   4.924  15.973  0.00  0.00    +0.000 A 
ATOM     19  C   UNL     1       5.511   4.018  16.072  0.00  0.00    +0.000 A 
ATOM     20  C   UNL     1       4.502   4.226  17.018  0.00  0.00    +0.000 A 
ATOM     21  C   UNL     1       4.522   5.332  17.891  0.00  0.00    +0.000 A 
ATOM     22  C   UNL     1       5.607   6.229  17.756  0.00  0.00    +0.000 A 
BRANCH  17  24
ATOM     23  C   UNL     1       7.820   7.971  17.476  0.00  0.00    +0.000 C 
ATOM     24  O   UNL     1       7.697   6.849  16.609  0.00  0.00    +0.000 OA
ENDBRANCH  17  24
BRANCH  20  25
ATOM     25  O   UNL     1       3.472   3.323  17.064  0.00  0.00    +0.000 OA
ATOM     26  H   UNL     1       3.132   3.177  16.164  0.00  0.00    +0.000 HD
ENDBRANCH  20  25
ENDBRANCH   1  21
TORSDOF 4
ENDMDL
MODEL 7
REMARK VINA RESULT:      -7.8      4.509      8.193
REMARK  Name = 
REMARK  5 active torsions:
REMARK  status: ('A' for Active; 'I' for Inactive)
REMARK    1  A    between atoms: C_1  and  O_2
REMARK    2  A    between atoms: O_2  and  C_3
REMARK    3  A    between atoms: C_6  and  O_7
REMARK    4  A    between atoms: C_8  and  C_9
REMARK    5  A    between atoms: C_11  and  C_12
REMARK                            x       y       z     vdW  Elec       q    Type
REMARK                         _______ _______ _______ _____ _____    ______ ____
ROOT
ATOM      1  C   UNL     1       2.327   6.681  19.871  0.00  0.00    +0.000 A 
ATOM      2  C   UNL     1       3.333   6.481  18.950  0.00  0.00    +0.000 A 
ATOM      3  C   UNL     1       3.847   5.206  18.814  0.00  0.00    +0.000 A 
ATOM      4  N   UNL     1       3.418   4.198  19.595  0.00  0.00    +0.000 NA
ATOM      5  C   UNL     1       2.453   4.470  20.473  0.00  0.00    +0.000 A 
ATOM      6  N   UNL     1       1.976   3.422  21.237  0.00  0.00    +0.000 N 
ATOM      7  N   UNL     1       1.878   5.661  20.637  0.00  0.00    +0.000 NA
ATOM      8  H   UNL     1       2.152   2.556  20.744  0.00  0.00    +0.000 HD
ATOM      9  H   UNL     1       1.020   3.611  21.502  0.00  0.00    +0.000 HD
ENDROOT
BRANCH   3  10
ATOM     10  C   UNL     1       4.910   4.900  17.827  0.00  0.00    +0.000 A 
ATOM     11  C   UNL     1       4.548   4.396  16.553  0.00  0.00    +0.000 A 
ATOM     12  C   UNL     1       5.498   4.048  15.589  0.00  0.00    +0.000 A 
ATOM     13  C   UNL     1       6.848   4.215  15.860  0.00  0.00    +0.000 A 
ATOM     14  C   UNL     1       7.242   4.717  17.099  0.00  0.00    +0.000 A 
ATOM     15  C   UNL     1       6.291   5.045  18.078  0.00  0.00    +0.000 A 
ATOM     16 CL   UNL     1       6.935   5.558  19.604  0.00  0.00    +0.000 Cl
ENDBRANCH   3  10
BRANCH   1  21
ATOM     17  C   UNL     1       0.777   9.598  21.747  0.00  0.00    +0.000 A 
ATOM     18  C   UNL     1       0.527  10.507  20.724  0.00  0.00    +0.000 A 
ATOM     19  C   UNL     1       0.844  10.189  19.406  0.00  0.00    +0.000 A 
ATOM     20  C   UNL     1       1.419   8.949  19.111  0.00  0.00    +0.000 A 
ATOM     21  C   UNL     1       1.699   8.003  20.118  0.00  0.00    +0.000 A 
ATOM     22  C   UNL     1       1.359   8.366  21.442  0.00  0.00    +0.000 A 
BRANCH  17  24
ATOM     23  C   UNL     1      -0.905  10.536  23.139  0.00  0.00    +0.000 C 
ATOM     24  O   UNL     1       0.417  10.030  22.995  0.00  0.00    +0.000 OA
ENDBRANCH  17  24
BRANCH  20  25
ATOM     25  O   UNL     1       1.691   8.666  17.798  0.00  0.00    +0.000 OA
ATOM     26  H   UNL     1       1.797   7.705  17.691  0.00  0.00    +0.000 HD
ENDBRANCH  20  25
ENDBRANCH   1  21
TORSDOF 4
ENDMDL
MODEL 8
REMARK VINA RESULT:      -7.8      1.702      2.127
REMARK  Name = 
REMARK  5 active torsions:
REMARK  status: ('A' for Active; 'I' for Inactive)
REMARK    1  A    between atoms: C_1  and  O_2
REMARK    2  A    between atoms: O_2  and  C_3
REMARK    3  A    between atoms: C_6  and  O_7
REMARK    4  A    between atoms: C_8  and  C_9
REMARK    5  A    between atoms: C_11  and  C_12
REMARK                            x       y       z     vdW  Elec       q    Type
REMARK                         _______ _______ _______ _____ _____    ______ ____
ROOT
ATOM      1  C   UNL     1       6.427   4.918  15.575  0.00  0.00    +0.000 A 
ATOM      2  C   UNL     1       5.284   5.536  16.034  0.00  0.00    +0.000 A 
ATOM      3  C   UNL     1       5.199   5.828  17.381  0.00  0.00    +0.000 A 
ATOM      4  N   UNL     1       6.178   5.472  18.232  0.00  0.00    +0.000 NA
ATOM      5  C   UNL     1       7.247   4.864  17.718  0.00  0.00    +0.000 A 
ATOM      6  N   UNL     1       8.274   4.546  18.585  0.00  0.00    +0.000 N 
ATOM      7  N   UNL     1       7.422   4.583  16.427  0.00  0.00    +0.000 NA
ATOM      8  H   UNL     1       8.227   5.166  19.383  0.00  0.00    +0.000 HD
ATOM      9  H   UNL     1       9.146   4.525  18.074  0.00  0.00    +0.000 HD
ENDROOT
BRANCH   3  10
ATOM     10  C   UNL     1       4.017   6.519  17.951  0.00  0.00    +0.000 A 
ATOM     11  C   UNL     1       3.617   7.767  17.413  0.00  0.00    +0.000 A 
ATOM     12  C   UNL     1       2.540   8.493  17.928  0.00  0.00    +0.000 A 
ATOM     13  C   UNL     1       1.806   7.978  18.986  0.00  0.00    +0.000 A 
ATOM     14  C   UNL     1       2.162   6.749  19.535  0.00  0.00    +0.000 A 
ATOM     15  C   UNL     1       3.260   6.029  19.037  0.00  0.00    +0.000 A 
ATOM     16 CL   UNL     1       3.645   4.567  19.887  0.00  0.00    +0.000 Cl
ENDBRANCH   3  10
BRANCH   1  21
ATOM     17  C   UNL     1       5.918   3.190  12.230  0.00  0.00    +0.000 A 
ATOM     18  C   UNL     1       6.913   3.765  11.446  0.00  0.00    +0.000 A 
ATOM     19  C   UNL     1       7.775   4.714  11.988  0.00  0.00    +0.000 A 
ATOM     20  C   UNL     1       7.637   5.092  13.327  0.00  0.00    +0.000 A 
ATOM     21  C   UNL     1       6.637   4.542  14.154  0.00  0.00    +0.000 A 
ATOM     22  C   UNL     1       5.784   3.580  13.564  0.00  0.00    +0.000 A 
BRANCH  17  24
ATOM     23  C   UNL     1       5.798   1.100  11.105  0.00  0.00    +0.000 C 
ATOM     24  O   UNL     1       5.141   2.269  11.580  0.00  0.00    +0.000 OA
ENDBRANCH  17  24
BRANCH  20  25
ATOM     25  O   UNL     1       8.524   6.010  13.828  0.00  0.00    +0.000 OA
ATOM     26  H   UNL     1       8.415   6.853  13.355  0.00  0.00    +0.000 HD
ENDBRANCH  20  25
ENDBRANCH   1  21
TORSDOF 4
ENDMDL
MODEL 9
REMARK VINA RESULT:      -7.7      2.183      2.819
REMARK  Name = 
REMARK  5 active torsions:
REMARK  status: ('A' for Active; 'I' for Inactive)
REMARK    1  A    between atoms: C_1  and  O_2
REMARK    2  A    between atoms: O_2  and  C_3
REMARK    3  A    between atoms: C_6  and  O_7
REMARK    4  A    between atoms: C_8  and  C_9
REMARK    5  A    between atoms: C_11  and  C_12
REMARK                            x       y       z     vdW  Elec       q    Type
REMARK                         _______ _______ _______ _____ _____    ______ ____
ROOT
ATOM      1  C   UNL     1       5.200   4.725  16.391  0.00  0.00    +0.000 A 
ATOM      2  C   UNL     1       4.395   5.795  16.718  0.00  0.00    +0.000 A 
ATOM      3  C   UNL     1       3.818   5.815  17.973  0.00  0.00    +0.000 A 
ATOM      4  N   UNL     1       3.992   4.796  18.833  0.00  0.00    +0.000 NA
ATOM      5  C   UNL     1       4.771   3.788  18.442  0.00  0.00    +0.000 A 
ATOM      6  N   UNL     1       4.991   2.767  19.346  0.00  0.00    +0.000 N 
ATOM      7  N   UNL     1       5.394   3.712  17.265  0.00  0.00    +0.000 NA
ATOM      8  H   UNL     1       4.852   3.128  20.281  0.00  0.00    +0.000 HD
ATOM      9  H   UNL     1       5.883   2.335  19.151  0.00  0.00    +0.000 HD
ENDROOT
BRANCH   3  10
ATOM     10  C   UNL     1       2.963   6.943  18.415  0.00  0.00    +0.000 A 
ATOM     11  C   UNL     1       2.876   8.104  17.608  0.00  0.00    +0.000 A 
ATOM     12  C   UNL     1       2.123   9.220  17.982  0.00  0.00    +0.000 A 
ATOM     13  C   UNL     1       1.409   9.202  19.170  0.00  0.00    +0.000 A 
ATOM     14  C   UNL     1       1.461   8.074  19.986  0.00  0.00    +0.000 A 
ATOM     15  C   UNL     1       2.236   6.961  19.625  0.00  0.00    +0.000 A 
ATOM     16 CL   UNL     1       2.287   5.675  20.787  0.00  0.00    +0.000 Cl
ENDBRANCH   3  10
BRANCH   1  21
ATOM     17  C   UNL     1       5.847   3.579  12.827  0.00  0.00    +0.000 A 
ATOM     18  C   UNL     1       7.026   4.246  12.512  0.00  0.00    +0.000 A 
ATOM     19  C   UNL     1       7.640   5.071  13.450  0.00  0.00    +0.000 A 
ATOM     20  C   UNL     1       7.066   5.229  14.716  0.00  0.00    +0.000 A 
ATOM     21  C   UNL     1       5.868   4.580  15.073  0.00  0.00    +0.000 A 
ATOM     22  C   UNL     1       5.278   3.750  14.090  0.00  0.00    +0.000 A 
BRANCH  17  24
ATOM     23  C   UNL     1       4.096   3.195  11.266  0.00  0.00    +0.000 C 
ATOM     24  O   UNL     1       5.346   2.799  11.820  0.00  0.00    +0.000 OA
ENDBRANCH  17  24
BRANCH  20  25
ATOM     25  O   UNL     1       7.718   6.029  15.618  0.00  0.00    +0.000 OA
ATOM     26  H   UNL     1       8.492   6.433  15.190  0.00  0.00    +0.000 HD
ENDBRANCH  20  25
ENDBRANCH   1  21
TORSDOF 4
ENDMDL
