MODEL 1
REMARK VINA RESULT:      -7.9      0.000      0.000
REMARK  Name = 
REMARK  11 active torsions:
REMARK  status: ('A' for Active; 'I' for Inactive)
REMARK    1  A    between atoms: C_1  and  O_2
REMARK    2  A    between atoms: O_2  and  C_3
REMARK    3  A    between atoms: C_5  and  C_6
REMARK    4  A    between atoms: C_6  and  C_7
REMARK    5  A    between atoms: C_7  and  C_8
REMARK    6  A    between atoms: N_10  and  C_11
REMARK    7  A    between atoms: C_16  and  C_17
REMARK    8  A    between atoms: C_23  and  O_24
REMARK    9  A    between atoms: O_24  and  C_25
REMARK   10  A    between atoms: C_26  and  O_27
REMARK   11  A    between atoms: O_27  and  C_28
REMARK                            x       y       z     vdW  Elec       q    Type
REMARK                         _______ _______ _______ _____ _____    ______ ____
ROOT
ATOM      1  C   UNL     1       7.600   7.679  17.772  0.00  0.00    +0.000 C 
ATOM      2  O   UNL     1       8.036   6.900  18.618  0.00  0.00    +0.000 OA
ATOM      3  N   UNL     1       6.538   7.411  16.922  0.00  0.00    +0.000 N 
ATOM      4  H   UNL     1       6.393   8.048  16.152  0.00  0.00    +0.000 HD
ENDROOT
BRANCH   3   5
ATOM      5  C   UNL     1       5.736   6.244  16.964  0.00  0.00    +0.000 A 
ATOM      6  C   UNL     1       6.132   5.025  16.410  0.00  0.00    +0.000 A 
ATOM      7  C   UNL     1       5.298   3.908  16.466  0.00  0.00    +0.000 A 
ATOM      8  C   UNL     1       4.045   3.982  17.077  0.00  0.00    +0.000 A 
ATOM      9 CL   UNL     1       3.109   2.536  17.074  0.00  0.00    +0.000 Cl
ATOM     10  C   UNL     1       3.620   5.185  17.649  0.00  0.00    +0.000 A 
ATOM     11  C   UNL     1       4.491   6.308  17.594  0.00  0.00    +0.000 A 
BRANCH  10  12
ATOM     12  C   UNL     1       2.277   5.380  18.307  0.00  0.00    +0.000 C 
ATOM     13  F   UNL     1       1.996   6.628  18.764  0.00  0.00    +0.000 F 
ATOM     14  F   UNL     1       1.254   5.064  17.464  0.00  0.00    +0.000 F 
ATOM     15  F   UNL     1       2.123   4.557  19.384  0.00  0.00    +0.000 F 
ENDBRANCH  10  12
ENDBRANCH   3   5
BRANCH   1  16
ATOM     16  C   UNL     1       8.220   9.052  17.578  0.00  0.00    +0.000 C 
BRANCH  16  17
ATOM     17  C   UNL     1       9.070   9.375  18.809  0.00  0.00    +0.000 C 
BRANCH  17  20
ATOM     18  C   UNL     1       9.852  12.652  20.575  0.00  0.00    +0.000 A 
ATOM     19  C   UNL     1       9.301  11.390  20.295  0.00  0.00    +0.000 A 
ATOM     20  C   UNL     1       9.404  10.826  19.026  0.00  0.00    +0.000 A 
ATOM     21  C   UNL     1       9.952  11.593  18.000  0.00  0.00    +0.000 A 
ATOM     22  C   UNL     1      10.433  12.892  18.231  0.00  0.00    +0.000 A 
ATOM     23  C   UNL     1      10.391  13.442  19.533  0.00  0.00    +0.000 A 
BRANCH  18  25
ATOM     24  C   UNL     1       8.572  13.509  22.377  0.00  0.00    +0.000 C 
ATOM     25  O   UNL     1       9.851  13.120  21.866  0.00  0.00    +0.000 OA
ENDBRANCH  18  25
BRANCH  22  26
ATOM     26  O   UNL     1      10.937  13.441  17.078  0.00  0.00    +0.000 OA
ATOM     27  C   UNL     1      12.324  13.343  16.798  0.00  0.00    +0.000 C 
ENDBRANCH  22  26
BRANCH  23  28
ATOM     28  O   UNL     1      10.880  14.714  19.662  0.00  0.00    +0.000 OA
ATOM     29  C   UNL     1      10.030  15.839  19.524  0.00  0.00    +0.000 C 
ENDBRANCH  23  28
ENDBRANCH  17  20
ENDBRANCH  16  17
ENDBRANCH   1  16
TORSDOF 8
ENDMDL
MODEL 2
REMARK VINA RESULT:      -7.8      6.854      9.538
REMARK  Name = 
REMARK  11 active torsions:
REMARK  status: ('A' for Active; 'I' for Inactive)
REMARK    1  A    between atoms: C_1  and  O_2
REMARK    2  A    between atoms: O_2  and  C_3
REMARK    3  A    between atoms: C_5  and  C_6
REMARK    4  A    between atoms: C_6  and  C_7
REMARK    5  A    between atoms: C_7  and  C_8
REMARK    6  A    between atoms: N_10  and  C_11
REMARK    7  A    between atoms: C_16  and  C_17
REMARK    8  A    between atoms: C_23  and  O_24
REMARK    9  A    between atoms: O_24  and  C_25
REMARK   10  A    between atoms: C_26  and  O_27
REMARK   11  A    between atoms: O_27  and  C_28
REMARK                            x       y       z     vdW  Elec       q    Type
REMARK                         _______ _______ _______ _____ _____    ______ ____
ROOT
ATOM      1  C   UNL     1       2.127   8.039  18.837  0.00  0.00    +0.000 C 
ATOM      2  O   UNL     1       2.127   7.717  20.024  0.00  0.00    +0.000 OA
ATOM      3  N   UNL     1       2.481   7.203  17.789  0.00  0.00    +0.000 N 
ATOM      4  H   UNL     1       2.620   7.631  16.885  0.00  0.00    +0.000 HD
ENDROOT
BRANCH   3   5
ATOM      5  C   UNL     1       2.800   5.828  17.917  0.00  0.00    +0.000 A 
ATOM      6  C   UNL     1       3.958   5.261  17.381  0.00  0.00    +0.000 A 
ATOM      7  C   UNL     1       4.219   3.898  17.523  0.00  0.00    +0.000 A 
ATOM      8  C   UNL     1       3.329   3.066  18.205  0.00  0.00    +0.000 A 
ATOM      9 CL   UNL     1       3.764   1.403  18.305  0.00  0.00    +0.000 Cl
ATOM     10  C   UNL     1       2.164   3.603  18.761  0.00  0.00    +0.000 A 
ATOM     11  C   UNL     1       1.923   4.997  18.618  0.00  0.00    +0.000 A 
BRANCH  10  12
ATOM     12  C   UNL     1       1.124   2.791  19.492  0.00  0.00    +0.000 C 
ATOM     13  F   UNL     1       1.578   1.915  20.426  0.00  0.00    +0.000 F 
ATOM     14  F   UNL     1       0.233   3.588  20.146  0.00  0.00    +0.000 F 
ATOM     15  F   UNL     1       0.375   2.045  18.629  0.00  0.00    +0.000 F 
ENDBRANCH  10  12
ENDBRANCH   3   5
BRANCH   1  16
ATOM     16  C   UNL     1       1.729   9.441  18.406  0.00  0.00    +0.000 C 
BRANCH  16  17
ATOM     17  C   UNL     1       0.761  10.008  19.446  0.00  0.00    +0.000 C 
BRANCH  17  20
ATOM     18  C   UNL     1      -2.454  10.364  17.446  0.00  0.00    +0.000 A 
ATOM     19  C   UNL     1      -1.138  10.022  17.798  0.00  0.00    +0.000 A 
ATOM     20  C   UNL     1      -0.524  10.582  18.916  0.00  0.00    +0.000 A 
ATOM     21  C   UNL     1      -1.195  11.589  19.607  0.00  0.00    +0.000 A 
ATOM     22  C   UNL     1      -2.478  12.013  19.225  0.00  0.00    +0.000 A 
ATOM     23  C   UNL     1      -3.131  11.399  18.132  0.00  0.00    +0.000 A 
BRANCH  18  25
ATOM     24  C   UNL     1      -2.895  10.263  15.119  0.00  0.00    +0.000 C 
ATOM     25  O   UNL     1      -3.076   9.695  16.419  0.00  0.00    +0.000 OA
ENDBRANCH  18  25
BRANCH  22  26
ATOM     26  O   UNL     1      -2.937  13.000  20.061  0.00  0.00    +0.000 OA
ATOM     27  C   UNL     1      -3.603  12.652  21.265  0.00  0.00    +0.000 C 
ENDBRANCH  22  26
BRANCH  23  28
ATOM     28  O   UNL     1      -4.377  11.878  17.832  0.00  0.00    +0.000 OA
ATOM     29  C   UNL     1      -5.542  11.231  18.313  0.00  0.00    +0.000 C 
ENDBRANCH  23  28
ENDBRANCH  17  20
ENDBRANCH  16  17
ENDBRANCH   1  16
TORSDOF 8
ENDMDL
MODEL 3
REMARK VINA RESULT:      -7.6      6.810      9.445
REMARK  Name = 
REMARK  11 active torsions:
REMARK  status: ('A' for Active; 'I' for Inactive)
REMARK    1  A    between atoms: C_1  and  O_2
REMARK    2  A    between atoms: O_2  and  C_3
REMARK    3  A    between atoms: C_5  and  C_6
REMARK    4  A    between atoms: C_6  and  C_7
REMARK    5  A    between atoms: C_7  and  C_8
REMARK    6  A    between atoms: N_10  and  C_11
REMARK    7  A    between atoms: C_16  and  C_17
REMARK    8  A    between atoms: C_23  and  O_24
REMARK    9  A    between atoms: O_24  and  C_25
REMARK   10  A    between atoms: C_26  and  O_27
REMARK   11  A    between atoms: O_27  and  C_28
REMARK                            x       y       z     vdW  Elec       q    Type
REMARK                         _______ _______ _______ _____ _____    ______ ____
ROOT
ATOM      1  C   UNL     1       2.018   8.208  18.622  0.00  0.00    +0.000 C 
ATOM      2  O   UNL     1       1.916   8.241  19.848  0.00  0.00    +0.000 OA
ATOM      3  N   UNL     1       2.603   7.177  17.903  0.00  0.00    +0.000 N 
ATOM      4  H   UNL     1       2.793   7.347  16.926  0.00  0.00    +0.000 HD
ENDROOT
BRANCH   3   5
ATOM      5  C   UNL     1       3.082   5.966  18.460  0.00  0.00    +0.000 A 
ATOM      6  C   UNL     1       4.439   5.697  18.651  0.00  0.00    +0.000 A 
ATOM      7  C   UNL     1       4.859   4.482  19.191  0.00  0.00    +0.000 A 
ATOM      8  C   UNL     1       3.933   3.502  19.555  0.00  0.00    +0.000 A 
ATOM      9 CL   UNL     1       4.580   2.044  20.204  0.00  0.00    +0.000 Cl
ATOM     10  C   UNL     1       2.566   3.742  19.385  0.00  0.00    +0.000 A 
ATOM     11  C   UNL     1       2.157   4.992  18.846  0.00  0.00    +0.000 A 
BRANCH  10  12
ATOM     12  C   UNL     1       1.486   2.743  19.718  0.00  0.00    +0.000 C 
ATOM     13  F   UNL     1       1.720   1.451  19.371  0.00  0.00    +0.000 F 
ATOM     14  F   UNL     1       1.221   2.717  21.055  0.00  0.00    +0.000 F 
ATOM     15  F   UNL     1       0.302   3.069  19.122  0.00  0.00    +0.000 F 
ENDBRANCH  10  12
ENDBRANCH   3   5
BRANCH   1  16
ATOM     16  C   UNL     1       1.495   9.347  17.762  0.00  0.00    +0.000 C 
BRANCH  16  17
ATOM     17  C   UNL     1       0.811  10.365  18.676  0.00  0.00    +0.000 C 
BRANCH  17  20
ATOM     18  C   UNL     1      -2.753  11.593  19.186  0.00  0.00    +0.000 A 
ATOM     19  C   UNL     1      -1.410  11.266  19.437  0.00  0.00    +0.000 A 
ATOM     20  C   UNL     1      -0.684  10.473  18.551  0.00  0.00    +0.000 A 
ATOM     21  C   UNL     1      -1.353   9.902  17.471  0.00  0.00    +0.000 A 
ATOM     22  C   UNL     1      -2.718  10.141  17.242  0.00  0.00    +0.000 A 
ATOM     23  C   UNL     1      -3.440  10.999  18.102  0.00  0.00    +0.000 A 
BRANCH  18  25
ATOM     24  C   UNL     1      -2.579  13.525  20.548  0.00  0.00    +0.000 C 
ATOM     25  O   UNL     1      -3.398  12.484  20.008  0.00  0.00    +0.000 OA
ENDBRANCH  18  25
BRANCH  22  26
ATOM     26  O   UNL     1      -3.149   9.484  16.116  0.00  0.00    +0.000 OA
ATOM     27  C   UNL     1      -2.964  10.077  14.840  0.00  0.00    +0.000 C 
ENDBRANCH  22  26
BRANCH  23  28
ATOM     28  O   UNL     1      -4.765  11.171  17.802  0.00  0.00    +0.000 OA
ATOM     29  C   UNL     1      -5.187  12.213  16.940  0.00  0.00    +0.000 C 
ENDBRANCH  23  28
ENDBRANCH  17  20
ENDBRANCH  16  17
ENDBRANCH   1  16
TORSDOF 8
ENDMDL
MODEL 4
REMARK VINA RESULT:      -7.6      0.597      2.587
REMARK  Name = 
REMARK  11 active torsions:
REMARK  status: ('A' for Active; 'I' for Inactive)
REMARK    1  A    between atoms: C_1  and  O_2
REMARK    2  A    between atoms: O_2  and  C_3
REMARK    3  A    between atoms: C_5  and  C_6
REMARK    4  A    between atoms: C_6  and  C_7
REMARK    5  A    between atoms: C_7  and  C_8
REMARK    6  A    between atoms: N_10  and  C_11
REMARK    7  A    between atoms: C_16  and  C_17
REMARK    8  A    between atoms: C_23  and  O_24
REMARK    9  A    between atoms: O_24  and  C_25
REMARK   10  A    between atoms: C_26  and  O_27
REMARK   11  A    between atoms: O_27  and  C_28
REMARK                            x       y       z     vdW  Elec       q    Type
REMARK                         _______ _______ _______ _____ _____    ______ ____
ROOT
ATOM      1  C   UNL     1       7.747   7.748  17.869  0.00  0.00    +0.000 C 
ATOM      2  O   UNL     1       8.150   6.910  18.675  0.00  0.00    +0.000 OA
ATOM      3  N   UNL     1       6.670   7.569  17.014  0.00  0.00    +0.000 N 
ATOM      4  H   UNL     1       6.551   8.248  16.276  0.00  0.00    +0.000 HD
ENDROOT
BRANCH   3   5
ATOM      5  C   UNL     1       5.814   6.440  17.007  0.00  0.00    +0.000 A 
ATOM      6  C   UNL     1       6.123   5.253  16.339  0.00  0.00    +0.000 A 
ATOM      7  C   UNL     1       5.238   4.174  16.352  0.00  0.00    +0.000 A 
ATOM      8  C   UNL     1       4.022   4.255  17.032  0.00  0.00    +0.000 A 
ATOM      9 CL   UNL     1       3.017   2.857  16.965  0.00  0.00    +0.000 Cl
ATOM     10  C   UNL     1       3.685   5.426  17.717  0.00  0.00    +0.000 A 
ATOM     11  C   UNL     1       4.606   6.509  17.705  0.00  0.00    +0.000 A 
BRANCH  10  12
ATOM     12  C   UNL     1       2.387   5.627  18.459  0.00  0.00    +0.000 C 
ATOM     13  F   UNL     1       1.650   4.515  18.714  0.00  0.00    +0.000 F 
ATOM     14  F   UNL     1       2.589   6.215  19.673  0.00  0.00    +0.000 F 
ATOM     15  F   UNL     1       1.551   6.469  17.785  0.00  0.00    +0.000 F 
ENDBRANCH  10  12
ENDBRANCH   3   5
BRANCH   1  16
ATOM     16  C   UNL     1       8.430   9.098  17.735  0.00  0.00    +0.000 C 
BRANCH  16  17
ATOM     17  C   UNL     1       9.066   9.451  19.081  0.00  0.00    +0.000 C 
BRANCH  17  20
ATOM     18  C   UNL     1      10.433  12.868  18.121  0.00  0.00    +0.000 A 
ATOM     19  C   UNL     1      10.147  11.494  18.088  0.00  0.00    +0.000 A 
ATOM     20  C   UNL     1       9.632  10.839  19.206  0.00  0.00    +0.000 A 
ATOM     21  C   UNL     1       9.527  11.548  20.400  0.00  0.00    +0.000 A 
ATOM     22  C   UNL     1       9.888  12.903  20.485  0.00  0.00    +0.000 A 
ATOM     23  C   UNL     1      10.347  13.587  19.336  0.00  0.00    +0.000 A 
BRANCH  18  25
ATOM     24  C   UNL     1      12.163  13.281  16.553  0.00  0.00    +0.000 C 
ATOM     25  O   UNL     1      10.812  13.508  16.966  0.00  0.00    +0.000 OA
ENDBRANCH  18  25
BRANCH  22  26
ATOM     26  O   UNL     1       9.685  13.387  21.754  0.00  0.00    +0.000 OA
ATOM     27  C   UNL     1       8.399  13.848  22.135  0.00  0.00    +0.000 C 
ENDBRANCH  22  26
BRANCH  23  28
ATOM     28  O   UNL     1      10.677  14.903  19.514  0.00  0.00    +0.000 OA
ATOM     29  C   UNL     1      12.026  15.299  19.688  0.00  0.00    +0.000 C 
ENDBRANCH  23  28
ENDBRANCH  17  20
ENDBRANCH  16  17
ENDBRANCH   1  16
TORSDOF 8
ENDMDL
MODEL 5
REMARK VINA RESULT:      -7.5      7.558      9.683
REMARK  Name = 
REMARK  11 active torsions:
REMARK  status: ('A' for Active; 'I' for Inactive)
REMARK    1  A    between atoms: C_1  and  O_2
REMARK    2  A    between atoms: O_2  and  C_3
REMARK    3  A    between atoms: C_5  and  C_6
REMARK    4  A    between atoms: C_6  and  C_7
REMARK    5  A    between atoms: C_7  and  C_8
REMARK    6  A    between atoms: N_10  and  C_11
REMARK    7  A    between atoms: C_16  and  C_17
REMARK    8  A    between atoms: C_23  and  O_24
REMARK    9  A    between atoms: O_24  and  C_25
REMARK   10  A    between atoms: C_26  and  O_27
REMARK   11  A    between atoms: O_27  and  C_28
REMARK                            x       y       z     vdW  Elec       q    Type
REMARK                         _______ _______ _______ _____ _____    ______ ____
ROOT
ATOM      1  C   UNL     1       0.726   8.279  21.551  0.00  0.00    +0.000 C 
ATOM      2  O   UNL     1      -0.382   7.846  21.237  0.00  0.00    +0.000 OA
ATOM      3  N   UNL     1       1.934   7.765  21.105  0.00  0.00    +0.000 N 
ATOM      4  H   UNL     1       2.770   8.081  21.573  0.00  0.00    +0.000 HD
ENDROOT
BRANCH   3   5
ATOM      5  C   UNL     1       2.074   6.730  20.147  0.00  0.00    +0.000 A 
ATOM      6  C   UNL     1       2.593   6.938  18.868  0.00  0.00    +0.000 A 
ATOM      7  C   UNL     1       2.697   5.887  17.957  0.00  0.00    +0.000 A 
ATOM      8  C   UNL     1       2.283   4.599  18.302  0.00  0.00    +0.000 A 
ATOM      9 CL   UNL     1       2.458   3.390  17.087  0.00  0.00    +0.000 Cl
ATOM     10  C   UNL     1       1.766   4.353  19.578  0.00  0.00    +0.000 A 
ATOM     11  C   UNL     1       1.682   5.435  20.497  0.00  0.00    +0.000 A 
BRANCH  10  12
ATOM     12  C   UNL     1       1.266   3.008  20.042  0.00  0.00    +0.000 C 
ATOM     13  F   UNL     1       0.224   2.472  19.354  0.00  0.00    +0.000 F 
ATOM     14  F   UNL     1       2.250   2.065  20.003  0.00  0.00    +0.000 F 
ATOM     15  F   UNL     1       0.857   3.048  21.343  0.00  0.00    +0.000 F 
ENDBRANCH  10  12
ENDBRANCH   3   5
BRANCH   1  16
ATOM     16  C   UNL     1       0.866   9.458  22.500  0.00  0.00    +0.000 C 
BRANCH  16  17
ATOM     17  C   UNL     1      -0.519   9.792  23.058  0.00  0.00    +0.000 C 
BRANCH  17  20
ATOM     18  C   UNL     1      -1.745  12.454  20.633  0.00  0.00    +0.000 A 
ATOM     19  C   UNL     1      -0.957  11.448  21.216  0.00  0.00    +0.000 A 
ATOM     20  C   UNL     1      -1.161  11.048  22.535  0.00  0.00    +0.000 A 
ATOM     21  C   UNL     1      -2.079  11.756  23.309  0.00  0.00    +0.000 A 
ATOM     22  C   UNL     1      -2.819  12.824  22.777  0.00  0.00    +0.000 A 
ATOM     23  C   UNL     1      -2.662  13.188  21.419  0.00  0.00    +0.000 A 
BRANCH  18  25
ATOM     24  C   UNL     1      -0.431  13.460  18.936  0.00  0.00    +0.000 C 
ATOM     25  O   UNL     1      -1.608  12.730  19.294  0.00  0.00    +0.000 OA
ENDBRANCH  18  25
BRANCH  22  26
ATOM     26  O   UNL     1      -3.664  13.354  23.720  0.00  0.00    +0.000 OA
ATOM     27  C   UNL     1      -4.323  12.496  24.638  0.00  0.00    +0.000 C 
ENDBRANCH  22  26
BRANCH  23  28
ATOM     28  O   UNL     1      -3.424  14.241  20.990  0.00  0.00    +0.000 OA
ATOM     29  C   UNL     1      -2.936  15.570  21.061  0.00  0.00    +0.000 C 
ENDBRANCH  23  28
ENDBRANCH  17  20
ENDBRANCH  16  17
ENDBRANCH   1  16
TORSDOF 8
ENDMDL
MODEL 6
REMARK VINA RESULT:      -7.5      1.251      2.571
REMARK  Name = 
REMARK  11 active torsions:
REMARK  status: ('A' for Active; 'I' for Inactive)
REMARK    1  A    between atoms: C_1  and  O_2
REMARK    2  A    between atoms: O_2  and  C_3
REMARK    3  A    between atoms: C_5  and  C_6
REMARK    4  A    between atoms: C_6  and  C_7
REMARK    5  A    between atoms: C_7  and  C_8
REMARK    6  A    between atoms: N_10  and  C_11
REMARK    7  A    between atoms: C_16  and  C_17
REMARK    8  A    between atoms: C_23  and  O_24
REMARK    9  A    between atoms: O_24  and  C_25
REMARK   10  A    between atoms: C_26  and  O_27
REMARK   11  A    between atoms: O_27  and  C_28
REMARK                            x       y       z     vdW  Elec       q    Type
REMARK                         _______ _______ _______ _____ _____    ______ ____
ROOT
ATOM      1  C   UNL     1       7.480   7.554  17.823  0.00  0.00    +0.000 C 
ATOM      2  O   UNL     1       8.018   6.757  18.592  0.00  0.00    +0.000 OA
ATOM      3  N   UNL     1       6.342   7.288  17.078  0.00  0.00    +0.000 N 
ATOM      4  H   UNL     1       6.103   7.946  16.350  0.00  0.00    +0.000 HD
ENDROOT
BRANCH   3   5
ATOM      5  C   UNL     1       5.573   6.100  17.160  0.00  0.00    +0.000 A 
ATOM      6  C   UNL     1       5.805   4.983  16.355  0.00  0.00    +0.000 A 
ATOM      7  C   UNL     1       5.010   3.843  16.466  0.00  0.00    +0.000 A 
ATOM      8  C   UNL     1       3.961   3.789  17.385  0.00  0.00    +0.000 A 
ATOM      9 CL   UNL     1       3.051   2.327  17.420  0.00  0.00    +0.000 Cl
ATOM     10  C   UNL     1       3.706   4.887  18.213  0.00  0.00    +0.000 A 
ATOM     11  C   UNL     1       4.537   6.035  18.094  0.00  0.00    +0.000 A 
BRANCH  10  12
ATOM     12  C   UNL     1       2.583   4.944  19.218  0.00  0.00    +0.000 C 
ATOM     13  F   UNL     1       2.582   3.994  20.189  0.00  0.00    +0.000 F 
ATOM     14  F   UNL     1       2.561   6.137  19.879  0.00  0.00    +0.000 F 
ATOM     15  F   UNL     1       1.364   4.845  18.613  0.00  0.00    +0.000 F 
ENDBRANCH  10  12
ENDBRANCH   3   5
BRANCH   1  16
ATOM     16  C   UNL     1       8.047   8.947  17.616  0.00  0.00    +0.000 C 
BRANCH  16  17
ATOM     17  C   UNL     1       9.037   9.237  18.746  0.00  0.00    +0.000 C 
BRANCH  17  20
ATOM     18  C   UNL     1       8.832  13.034  18.638  0.00  0.00    +0.000 A 
ATOM     19  C   UNL     1       8.967  11.697  18.228  0.00  0.00    +0.000 A 
ATOM     20  C   UNL     1       9.178  10.678  19.154  0.00  0.00    +0.000 A 
ATOM     21  C   UNL     1       9.381  11.025  20.488  0.00  0.00    +0.000 A 
ATOM     22  C   UNL     1       9.338  12.363  20.914  0.00  0.00    +0.000 A 
ATOM     23  C   UNL     1       9.058  13.392  19.987  0.00  0.00    +0.000 A 
BRANCH  18  25
ATOM     24  C   UNL     1       7.110  14.358  17.690  0.00  0.00    +0.000 C 
ATOM     25  O   UNL     1       8.493  13.994  17.716  0.00  0.00    +0.000 OA
ENDBRANCH  18  25
BRANCH  22  26
ATOM     26  O   UNL     1       9.553  12.454  22.267  0.00  0.00    +0.000 OA
ATOM     27  C   UNL     1       8.464  12.311  23.165  0.00  0.00    +0.000 C 
ENDBRANCH  22  26
BRANCH  23  28
ATOM     28  O   UNL     1       9.038  14.664  20.493  0.00  0.00    +0.000 OA
ATOM     29  C   UNL     1      10.205  15.468  20.491  0.00  0.00    +0.000 C 
ENDBRANCH  23  28
ENDBRANCH  17  20
ENDBRANCH  16  17
ENDBRANCH   1  16
TORSDOF 8
ENDMDL
MODEL 7
REMARK VINA RESULT:      -7.5      6.806      9.803
REMARK  Name = 
REMARK  11 active torsions:
REMARK  status: ('A' for Active; 'I' for Inactive)
REMARK    1  A    between atoms: C_1  and  O_2
REMARK    2  A    between atoms: O_2  and  C_3
REMARK    3  A    between atoms: C_5  and  C_6
REMARK    4  A    between atoms: C_6  and  C_7
REMARK    5  A    between atoms: C_7  and  C_8
REMARK    6  A    between atoms: N_10  and  C_11
REMARK    7  A    between atoms: C_16  and  C_17
REMARK    8  A    between atoms: C_23  and  O_24
REMARK    9  A    between atoms: O_24  and  C_25
REMARK   10  A    between atoms: C_26  and  O_27
REMARK   11  A    between atoms: O_27  and  C_28
REMARK                            x       y       z     vdW  Elec       q    Type
REMARK                         _______ _______ _______ _____ _____    ______ ____
ROOT
ATOM      1  C   UNL     1       1.869   8.440  18.774  0.00  0.00    +0.000 C 
ATOM      2  O   UNL     1       1.664   8.386  19.986  0.00  0.00    +0.000 OA
ATOM      3  N   UNL     1       2.562   7.486  18.045  0.00  0.00    +0.000 N 
ATOM      4  H   UNL     1       2.825   7.729  17.101  0.00  0.00    +0.000 HD
ENDROOT
BRANCH   3   5
ATOM      5  C   UNL     1       3.051   6.261  18.564  0.00  0.00    +0.000 A 
ATOM      6  C   UNL     1       4.388   5.871  18.469  0.00  0.00    +0.000 A 
ATOM      7  C   UNL     1       4.816   4.648  18.984  0.00  0.00    +0.000 A 
ATOM      8  C   UNL     1       3.917   3.781  19.608  0.00  0.00    +0.000 A 
ATOM      9 CL   UNL     1       4.569   2.300  20.197  0.00  0.00    +0.000 Cl
ATOM     10  C   UNL     1       2.572   4.144  19.728  0.00  0.00    +0.000 A 
ATOM     11  C   UNL     1       2.158   5.401  19.209  0.00  0.00    +0.000 A 
BRANCH  10  12
ATOM     12  C   UNL     1       1.515   3.272  20.358  0.00  0.00    +0.000 C 
ATOM     13  F   UNL     1       0.227   3.686  20.233  0.00  0.00    +0.000 F 
ATOM     14  F   UNL     1       1.540   2.007  19.851  0.00  0.00    +0.000 F 
ATOM     15  F   UNL     1       1.719   3.126  21.699  0.00  0.00    +0.000 F 
ENDBRANCH  10  12
ENDBRANCH   3   5
BRANCH   1  16
ATOM     16  C   UNL     1       1.366   9.610  17.946  0.00  0.00    +0.000 C 
BRANCH  16  17
ATOM     17  C   UNL     1       0.565  10.538  18.862  0.00  0.00    +0.000 C 
BRANCH  17  20
ATOM     18  C   UNL     1      -2.773  10.232  17.063  0.00  0.00    +0.000 A 
ATOM     19  C   UNL     1      -1.391  10.208  17.316  0.00  0.00    +0.000 A 
ATOM     20  C   UNL     1      -0.857  10.809  18.454  0.00  0.00    +0.000 A 
ATOM     21  C   UNL     1      -1.707  11.549  19.274  0.00  0.00    +0.000 A 
ATOM     22  C   UNL     1      -3.079  11.663  18.998  0.00  0.00    +0.000 A 
ATOM     23  C   UNL     1      -3.635  10.998  17.881  0.00  0.00    +0.000 A 
BRANCH  18  25
ATOM     24  C   UNL     1      -3.159  10.145  14.726  0.00  0.00    +0.000 C 
ATOM     25  O   UNL     1      -3.280   9.517  16.005  0.00  0.00    +0.000 OA
ENDBRANCH  18  25
BRANCH  22  26
ATOM     26  O   UNL     1      -3.709  12.425  19.950  0.00  0.00    +0.000 OA
ATOM     27  C   UNL     1      -3.042  12.731  21.164  0.00  0.00    +0.000 C 
ENDBRANCH  22  26
BRANCH  23  28
ATOM     28  O   UNL     1      -4.979  11.167  17.691  0.00  0.00    +0.000 OA
ATOM     29  C   UNL     1      -5.485  12.331  17.060  0.00  0.00    +0.000 C 
ENDBRANCH  23  28
ENDBRANCH  17  20
ENDBRANCH  16  17
ENDBRANCH   1  16
TORSDOF 8
ENDMDL
MODEL 8
REMARK VINA RESULT:      -7.5      6.210      9.761
REMARK  Name = 
REMARK  11 active torsions:
REMARK  status: ('A' for Active; 'I' for Inactive)
REMARK    1  A    between atoms: C_1  and  O_2
REMARK    2  A    between atoms: O_2  and  C_3
REMARK    3  A    between atoms: C_5  and  C_6
REMARK    4  A    between atoms: C_6  and  C_7
REMARK    5  A    between atoms: C_7  and  C_8
REMARK    6  A    between atoms: N_10  and  C_11
REMARK    7  A    between atoms: C_16  and  C_17
REMARK    8  A    between atoms: C_23  and  O_24
REMARK    9  A    between atoms: O_24  and  C_25
REMARK   10  A    between atoms: C_26  and  O_27
REMARK   11  A    between atoms: O_27  and  C_28
REMARK                            x       y       z     vdW  Elec       q    Type
REMARK                         _______ _______ _______ _____ _____    ______ ____
ROOT
ATOM      1  C   UNL     1       0.980   9.437  18.688  0.00  0.00    +0.000 C 
ATOM      2  O   UNL     1       0.852   9.273  19.901  0.00  0.00    +0.000 OA
ATOM      3  N   UNL     1       0.081  10.120  17.883  0.00  0.00    +0.000 N 
ATOM      4  H   UNL     1       0.197  10.029  16.884  0.00  0.00    +0.000 HD
ENDROOT
BRANCH   3   5
ATOM      5  C   UNL     1      -1.064  10.813  18.347  0.00  0.00    +0.000 A 
ATOM      6  C   UNL     1      -1.088  11.537  19.540  0.00  0.00    +0.000 A 
ATOM      7  C   UNL     1      -2.246  12.191  19.959  0.00  0.00    +0.000 A 
ATOM      8  C   UNL     1      -3.413  12.138  19.194  0.00  0.00    +0.000 A 
ATOM      9 CL   UNL     1      -4.776  12.983  19.822  0.00  0.00    +0.000 Cl
ATOM     10  C   UNL     1      -3.422  11.430  17.988  0.00  0.00    +0.000 A 
ATOM     11  C   UNL     1      -2.227  10.782  17.572  0.00  0.00    +0.000 A 
BRANCH  10  12
ATOM     12  C   UNL     1      -4.634  11.286  17.102  0.00  0.00    +0.000 C 
ATOM     13  F   UNL     1      -4.454  10.639  15.921  0.00  0.00    +0.000 F 
ATOM     14  F   UNL     1      -5.641  10.618  17.732  0.00  0.00    +0.000 F 
ATOM     15  F   UNL     1      -5.159  12.501  16.771  0.00  0.00    +0.000 F 
ENDBRANCH  10  12
ENDBRANCH   3   5
BRANCH   1  16
ATOM     16  C   UNL     1       2.178   8.873  17.944  0.00  0.00    +0.000 C 
BRANCH  16  17
ATOM     17  C   UNL     1       2.593   7.565  18.620  0.00  0.00    +0.000 C 
BRANCH  17  20
ATOM     18  C   UNL     1       5.694   6.253  16.850  0.00  0.00    +0.000 A 
ATOM     19  C   UNL     1       4.724   7.135  17.356  0.00  0.00    +0.000 A 
ATOM     20  C   UNL     1       3.500   6.665  17.826  0.00  0.00    +0.000 A 
ATOM     21  C   UNL     1       3.202   5.313  17.666  0.00  0.00    +0.000 A 
ATOM     22  C   UNL     1       4.119   4.423  17.083  0.00  0.00    +0.000 A 
ATOM     23  C   UNL     1       5.388   4.885  16.667  0.00  0.00    +0.000 A 
BRANCH  18  25
ATOM     24  C   UNL     1       7.507   7.656  17.452  0.00  0.00    +0.000 C 
ATOM     25  O   UNL     1       6.938   6.733  16.520  0.00  0.00    +0.000 OA
ENDBRANCH  18  25
BRANCH  22  26
ATOM     26  O   UNL     1       3.609   3.149  17.047  0.00  0.00    +0.000 OA
ATOM     27  C   UNL     1       3.431   2.425  18.254  0.00  0.00    +0.000 C 
ENDBRANCH  22  26
BRANCH  23  28
ATOM     28  O   UNL     1       6.214   3.946  16.110  0.00  0.00    +0.000 OA
ATOM     29  C   UNL     1       6.306   3.800  14.703  0.00  0.00    +0.000 C 
ENDBRANCH  23  28
ENDBRANCH  17  20
ENDBRANCH  16  17
ENDBRANCH   1  16
TORSDOF 8
ENDMDL
MODEL 9
REMARK VINA RESULT:      -7.3      7.514      9.301
REMARK  Name = 
REMARK  11 active torsions:
REMARK  status: ('A' for Active; 'I' for Inactive)
REMARK    1  A    between atoms: C_1  and  O_2
REMARK    2  A    between atoms: O_2  and  C_3
REMARK    3  A    between atoms: C_5  and  C_6
REMARK    4  A    between atoms: C_6  and  C_7
REMARK    5  A    between atoms: C_7  and  C_8
REMARK    6  A    between atoms: N_10  and  C_11
REMARK    7  A    between atoms: C_16  and  C_17
REMARK    8  A    between atoms: C_23  and  O_24
REMARK    9  A    between atoms: O_24  and  C_25
REMARK   10  A    between atoms: C_26  and  O_27
REMARK   11  A    between atoms: O_27  and  C_28
REMARK                            x       y       z     vdW  Elec       q    Type
REMARK                         _______ _______ _______ _____ _____    ______ ____
ROOT
ATOM      1  C   UNL     1       0.663   8.463  21.627  0.00  0.00    +0.000 C 
ATOM      2  O   UNL     1      -0.446   8.072  21.268  0.00  0.00    +0.000 OA
ATOM      3  N   UNL     1       1.868   7.906  21.225  0.00  0.00    +0.000 N 
ATOM      4  H   UNL     1       2.697   8.190  21.727  0.00  0.00    +0.000 HD
ENDROOT
BRANCH   3   5
ATOM      5  C   UNL     1       2.007   6.870  20.268  0.00  0.00    +0.000 A 
ATOM      6  C   UNL     1       2.472   7.088  18.970  0.00  0.00    +0.000 A 
ATOM      7  C   UNL     1       2.578   6.035  18.061  0.00  0.00    +0.000 A 
ATOM      8  C   UNL     1       2.220   4.736  18.427  0.00  0.00    +0.000 A 
ATOM      9 CL   UNL     1       2.391   3.526  17.213  0.00  0.00    +0.000 Cl
ATOM     10  C   UNL     1       1.758   4.481  19.722  0.00  0.00    +0.000 A 
ATOM     11  C   UNL     1       1.671   5.566  20.638  0.00  0.00    +0.000 A 
BRANCH  10  12
ATOM     12  C   UNL     1       1.320   3.123  20.212  0.00  0.00    +0.000 C 
ATOM     13  F   UNL     1       2.229   2.118  20.121  0.00  0.00    +0.000 F 
ATOM     14  F   UNL     1       0.947   3.159  21.522  0.00  0.00    +0.000 F 
ATOM     15  F   UNL     1       0.221   2.678  19.536  0.00  0.00    +0.000 F 
ENDBRANCH  10  12
ENDBRANCH   3   5
BRANCH   1  16
ATOM     16  C   UNL     1       0.809   9.632  22.586  0.00  0.00    +0.000 C 
BRANCH  16  17
ATOM     17  C   UNL     1      -0.573   9.964  23.153  0.00  0.00    +0.000 C 
BRANCH  17  20
ATOM     18  C   UNL     1      -2.728  13.096  23.026  0.00  0.00    +0.000 A 
ATOM     19  C   UNL     1      -2.287  11.797  23.325  0.00  0.00    +0.000 A 
ATOM     20  C   UNL     1      -1.216  11.225  22.642  0.00  0.00    +0.000 A 
ATOM     21  C   UNL     1      -0.669  11.919  21.565  0.00  0.00    +0.000 A 
ATOM     22  C   UNL     1      -1.147  13.185  21.187  0.00  0.00    +0.000 A 
ATOM     23  C   UNL     1      -2.190  13.796  21.921  0.00  0.00    +0.000 A 
BRANCH  18  25
ATOM     24  C   UNL     1      -5.044  13.345  23.462  0.00  0.00    +0.000 C 
ATOM     25  O   UNL     1      -3.697  13.679  23.806  0.00  0.00    +0.000 OA
ENDBRANCH  18  25
BRANCH  22  26
ATOM     26  O   UNL     1      -0.446  13.673  20.112  0.00  0.00    +0.000 OA
ATOM     27  C   UNL     1      -0.635  13.101  18.828  0.00  0.00    +0.000 C 
ENDBRANCH  22  26
BRANCH  23  28
ATOM     28  O   UNL     1      -2.591  15.027  21.479  0.00  0.00    +0.000 OA
ATOM     29  C   UNL     1      -2.036  16.213  22.022  0.00  0.00    +0.000 C 
ENDBRANCH  23  28
ENDBRANCH  17  20
ENDBRANCH  16  17
ENDBRANCH   1  16
TORSDOF 8
ENDMDL
