MODEL 1
REMARK VINA RESULT:      -7.0      0.000      0.000
REMARK  Name = 
REMARK  5 active torsions:
REMARK  status: ('A' for Active; 'I' for Inactive)
REMARK    1  A    between atoms: C_2  and  C_3
REMARK    2  A    between atoms: C_3  and  C_4
REMARK    3  A    between atoms: C_4  and  C_5
REMARK    4  A    between atoms: C_5  and  N_6
REMARK    5  A    between atoms: N_11  and  C_12
REMARK                            x       y       z     vdW  Elec       q    Type
REMARK                         _______ _______ _______ _____ _____    ______ ____
ROOT
ATOM      1  O   UNL     1       6.941   5.356  20.013  0.00  0.00    +0.000 OA
ATOM      2  C   UNL     1       6.545   5.201  18.863  0.00  0.00    +0.000 C 
ATOM      3  N   UNL     1       5.242   4.898  18.537  0.00  0.00    +0.000 N 
ATOM      4  H   UNL     1       4.971   4.944  17.563  0.00  0.00    +0.000 HD
ENDROOT
BRANCH   3   5
ATOM      5  C   UNL     1       4.173   4.875  19.536  0.00  0.00    +0.000 C 
ATOM      6  C   UNL     1       3.133   5.955  19.231  0.00  0.00    +0.000 C 
ATOM      7  C   UNL     1       2.190   5.325  18.204  0.00  0.00    +0.000 C 
ATOM      8  C   UNL     1       2.355   3.803  18.334  0.00  0.00    +0.000 C 
ATOM      9  C   UNL     1       1.101   3.054  18.765  0.00  0.00    +0.000 C 
ATOM     10  C   UNL     1       1.018   3.294  20.262  0.00  0.00    +0.000 C 
ATOM     11  C   UNL     1       2.471   3.346  20.736  0.00  0.00    +0.000 C 
ATOM     12  C   UNL     1       3.344   3.585  19.486  0.00  0.00    +0.000 C 
ENDBRANCH   3   5
BRANCH   2  13
ATOM     13  C   UNL     1       7.484   5.269  17.673  0.00  0.00    +0.000 C 
BRANCH  13  14
ATOM     14  C   UNL     1       6.958   4.443  16.502  0.00  0.00    +0.000 C 
BRANCH  14  15
ATOM     15  C   UNL     1       6.382   5.317  15.390  0.00  0.00    +0.000 C 
BRANCH  15  16
ATOM     16  N   UNL     1       6.493   4.682  14.090  0.00  0.00    +0.000 N 
ATOM     17  C   UNL     1       5.687   3.695  13.599  0.00  0.00    +0.000 A 
ATOM     18  C   UNL     1       6.188   3.428  12.344  0.00  0.00    +0.000 A 
ATOM     19  N   UNL     1       7.276   4.217  12.075  0.00  0.00    +0.000 NA
ATOM     20  C   UNL     1       7.438   4.964  13.147  0.00  0.00    +0.000 A 
ENDBRANCH  15  16
ENDBRANCH  14  15
ENDBRANCH  13  14
ENDBRANCH   2  13
TORSDOF 5
ENDMDL
MODEL 2
REMARK VINA RESULT:      -6.8      2.816      5.806
REMARK  Name = 
REMARK  5 active torsions:
REMARK  status: ('A' for Active; 'I' for Inactive)
REMARK    1  A    between atoms: C_2  and  C_3
REMARK    2  A    between atoms: C_3  and  C_4
REMARK    3  A    between atoms: C_4  and  C_5
REMARK    4  A    between atoms: C_5  and  N_6
REMARK    5  A    between atoms: N_11  and  C_12
REMARK                            x       y       z     vdW  Elec       q    Type
REMARK                         _______ _______ _______ _____ _____    ______ ____
ROOT
ATOM      1  O   UNL     1       2.413   7.259  19.130  0.00  0.00    +0.000 OA
ATOM      2  C   UNL     1       2.899   6.257  19.644  0.00  0.00    +0.000 C 
ATOM      3  N   UNL     1       4.006   5.604  19.151  0.00  0.00    +0.000 N 
ATOM      4  H   UNL     1       4.431   4.886  19.723  0.00  0.00    +0.000 HD
ENDROOT
BRANCH   3   5
ATOM      5  C   UNL     1       4.795   6.137  18.039  0.00  0.00    +0.000 C 
ATOM      6  C   UNL     1       6.290   5.993  18.327  0.00  0.00    +0.000 C 
ATOM      7  C   UNL     1       6.645   4.567  17.899  0.00  0.00    +0.000 C 
ATOM      8  C   UNL     1       5.550   4.118  16.919  0.00  0.00    +0.000 C 
ATOM      9  C   UNL     1       6.035   3.812  15.509  0.00  0.00    +0.000 C 
ATOM     10  C   UNL     1       6.216   5.178  14.870  0.00  0.00    +0.000 C 
ATOM     11  C   UNL     1       5.114   6.047  15.476  0.00  0.00    +0.000 C 
ATOM     12  C   UNL     1       4.620   5.326  16.748  0.00  0.00    +0.000 C 
ENDBRANCH   3   5
BRANCH   2  13
ATOM     13  C   UNL     1       2.278   5.597  20.860  0.00  0.00    +0.000 C 
BRANCH  13  14
ATOM     14  C   UNL     1       1.098   4.709  20.470  0.00  0.00    +0.000 C 
BRANCH  14  15
ATOM     15  C   UNL     1       1.415   3.224  20.625  0.00  0.00    +0.000 C 
BRANCH  15  16
ATOM     16  N   UNL     1       2.076   2.686  19.450  0.00  0.00    +0.000 N 
ATOM     17  C   UNL     1       3.250   1.990  19.428  0.00  0.00    +0.000 A 
ATOM     18  C   UNL     1       3.459   1.700  18.097  0.00  0.00    +0.000 A 
ATOM     19  N   UNL     1       2.451   2.212  17.323  0.00  0.00    +0.000 NA
ATOM     20  C   UNL     1       1.631   2.803  18.165  0.00  0.00    +0.000 A 
ENDBRANCH  15  16
ENDBRANCH  14  15
ENDBRANCH  13  14
ENDBRANCH   2  13
TORSDOF 5
ENDMDL
MODEL 3
REMARK VINA RESULT:      -6.7      0.930      1.148
REMARK  Name = 
REMARK  5 active torsions:
REMARK  status: ('A' for Active; 'I' for Inactive)
REMARK    1  A    between atoms: C_2  and  C_3
REMARK    2  A    between atoms: C_3  and  C_4
REMARK    3  A    between atoms: C_4  and  C_5
REMARK    4  A    between atoms: C_5  and  N_6
REMARK    5  A    between atoms: N_11  and  C_12
REMARK                            x       y       z     vdW  Elec       q    Type
REMARK                         _______ _______ _______ _____ _____    ______ ____
ROOT
ATOM      1  O   UNL     1       6.958   5.273  19.458  0.00  0.00    +0.000 OA
ATOM      2  C   UNL     1       6.572   4.678  18.458  0.00  0.00    +0.000 C 
ATOM      3  N   UNL     1       5.377   3.998  18.385  0.00  0.00    +0.000 N 
ATOM      4  H   UNL     1       5.068   3.672  17.478  0.00  0.00    +0.000 HD
ENDROOT
BRANCH   3   5
ATOM      5  C   UNL     1       4.386   4.045  19.461  0.00  0.00    +0.000 C 
ATOM      6  C   UNL     1       3.509   5.291  19.325  0.00  0.00    +0.000 C 
ATOM      7  C   UNL     1       2.414   4.904  18.329  0.00  0.00    +0.000 C 
ATOM      8  C   UNL     1       2.348   3.369  18.325  0.00  0.00    +0.000 C 
ATOM      9  C   UNL     1       1.024   2.780  18.793  0.00  0.00    +0.000 C 
ATOM     10  C   UNL     1       1.078   2.894  20.306  0.00  0.00    +0.000 C 
ATOM     11  C   UNL     1       2.549   2.685  20.667  0.00  0.00    +0.000 C 
ATOM     12  C   UNL     1       3.365   2.903  19.375  0.00  0.00    +0.000 C 
ENDBRANCH   3   5
BRANCH   2  13
ATOM     13  C   UNL     1       7.419   4.583  17.203  0.00  0.00    +0.000 C 
BRANCH  13  14
ATOM     14  C   UNL     1       6.591   4.117  16.008  0.00  0.00    +0.000 C 
BRANCH  14  15
ATOM     15  C   UNL     1       7.079   4.723  14.694  0.00  0.00    +0.000 C 
BRANCH  15  16
ATOM     16  N   UNL     1       6.419   4.130  13.546  0.00  0.00    +0.000 N 
ATOM     17  C   UNL     1       7.024   3.654  12.419  0.00  0.00    +0.000 A 
ATOM     18  C   UNL     1       5.989   3.199  11.632  0.00  0.00    +0.000 A 
ATOM     19  N   UNL     1       4.782   3.399  12.251  0.00  0.00    +0.000 NA
ATOM     20  C   UNL     1       5.071   3.964  13.404  0.00  0.00    +0.000 A 
ENDBRANCH  15  16
ENDBRANCH  14  15
ENDBRANCH  13  14
ENDBRANCH   2  13
TORSDOF 5
ENDMDL
MODEL 4
REMARK VINA RESULT:      -6.6      1.655      2.317
REMARK  Name = 
REMARK  5 active torsions:
REMARK  status: ('A' for Active; 'I' for Inactive)
REMARK    1  A    between atoms: C_2  and  C_3
REMARK    2  A    between atoms: C_3  and  C_4
REMARK    3  A    between atoms: C_4  and  C_5
REMARK    4  A    between atoms: C_5  and  N_6
REMARK    5  A    between atoms: N_11  and  C_12
REMARK                            x       y       z     vdW  Elec       q    Type
REMARK                         _______ _______ _______ _____ _____    ______ ____
ROOT
ATOM      1  O   UNL     1       3.424   7.461  18.025  0.00  0.00    +0.000 OA
ATOM      2  C   UNL     1       3.989   6.531  17.459  0.00  0.00    +0.000 C 
ATOM      3  N   UNL     1       3.606   5.214  17.580  0.00  0.00    +0.000 N 
ATOM      4  H   UNL     1       4.025   4.536  16.956  0.00  0.00    +0.000 HD
ENDROOT
BRANCH   3   5
ATOM      5  C   UNL     1       2.390   4.818  18.291  0.00  0.00    +0.000 C 
ATOM      6  C   UNL     1       1.914   3.446  17.812  0.00  0.00    +0.000 C 
ATOM      7  C   UNL     1       2.723   2.434  18.626  0.00  0.00    +0.000 C 
ATOM      8  C   UNL     1       3.222   3.175  19.876  0.00  0.00    +0.000 C 
ATOM      9  C   UNL     1       2.704   2.628  21.198  0.00  0.00    +0.000 C 
ATOM     10  C   UNL     1       1.287   3.166  21.297  0.00  0.00    +0.000 C 
ATOM     11  C   UNL     1       1.340   4.544  20.636  0.00  0.00    +0.000 C 
ATOM     12  C   UNL     1       2.629   4.588  19.789  0.00  0.00    +0.000 C 
ENDBRANCH   3   5
BRANCH   2  13
ATOM     13  C   UNL     1       5.222   6.744  16.601  0.00  0.00    +0.000 C 
BRANCH  13  14
ATOM     14  C   UNL     1       6.490   6.315  17.336  0.00  0.00    +0.000 C 
BRANCH  14  15
ATOM     15  C   UNL     1       6.899   4.883  16.996  0.00  0.00    +0.000 C 
BRANCH  15  16
ATOM     16  N   UNL     1       6.752   4.599  15.581  0.00  0.00    +0.000 N 
ATOM     17  C   UNL     1       5.897   3.694  15.020  0.00  0.00    +0.000 A 
ATOM     18  C   UNL     1       6.126   3.790  13.666  0.00  0.00    +0.000 A 
ATOM     19  N   UNL     1       7.100   4.717  13.401  0.00  0.00    +0.000 NA
ATOM     20  C   UNL     1       7.461   5.189  14.575  0.00  0.00    +0.000 A 
ENDBRANCH  15  16
ENDBRANCH  14  15
ENDBRANCH  13  14
ENDBRANCH   2  13
TORSDOF 5
ENDMDL
MODEL 5
REMARK VINA RESULT:      -6.5      2.514      6.094
REMARK  Name = 
REMARK  5 active torsions:
REMARK  status: ('A' for Active; 'I' for Inactive)
REMARK    1  A    between atoms: C_2  and  C_3
REMARK    2  A    between atoms: C_3  and  C_4
REMARK    3  A    between atoms: C_4  and  C_5
REMARK    4  A    between atoms: C_5  and  N_6
REMARK    5  A    between atoms: N_11  and  C_12
REMARK                            x       y       z     vdW  Elec       q    Type
REMARK                         _______ _______ _______ _____ _____    ______ ____
ROOT
ATOM      1  O   UNL     1       4.962   2.767  19.775  0.00  0.00    +0.000 OA
ATOM      2  C   UNL     1       4.481   2.793  18.647  0.00  0.00    +0.000 C 
ATOM      3  N   UNL     1       5.039   3.483  17.593  0.00  0.00    +0.000 N 
ATOM      4  H   UNL     1       4.666   3.320  16.667  0.00  0.00    +0.000 HD
ENDROOT
BRANCH   3   5
ATOM      5  C   UNL     1       6.344   4.136  17.692  0.00  0.00    +0.000 C 
ATOM      6  C   UNL     1       6.930   4.373  16.299  0.00  0.00    +0.000 C 
ATOM      7  C   UNL     1       6.307   5.686  15.821  0.00  0.00    +0.000 C 
ATOM      8  C   UNL     1       5.831   6.429  17.078  0.00  0.00    +0.000 C 
ATOM      9  C   UNL     1       6.511   7.767  17.331  0.00  0.00    +0.000 C 
ATOM     10  C   UNL     1       7.863   7.396  17.915  0.00  0.00    +0.000 C 
ATOM     11  C   UNL     1       7.604   6.134  18.740  0.00  0.00    +0.000 C 
ATOM     12  C   UNL     1       6.254   5.556  18.266  0.00  0.00    +0.000 C 
ENDBRANCH   3   5
BRANCH   2  13
ATOM     13  C   UNL     1       3.171   2.104  18.315  0.00  0.00    +0.000 C 
BRANCH  13  14
ATOM     14  C   UNL     1       2.091   3.115  17.938  0.00  0.00    +0.000 C 
BRANCH  14  15
ATOM     15  C   UNL     1       1.460   3.773  19.163  0.00  0.00    +0.000 C 
BRANCH  15  16
ATOM     16  N   UNL     1       1.853   5.163  19.294  0.00  0.00    +0.000 N 
ATOM     17  C   UNL     1       1.763   5.929  20.420  0.00  0.00    +0.000 A 
ATOM     18  C   UNL     1       2.253   7.161  20.045  0.00  0.00    +0.000 A 
ATOM     19  N   UNL     1       2.622   7.157  18.725  0.00  0.00    +0.000 NA
ATOM     20  C   UNL     1       2.368   5.939  18.296  0.00  0.00    +0.000 A 
ENDBRANCH  15  16
ENDBRANCH  14  15
ENDBRANCH  13  14
ENDBRANCH   2  13
TORSDOF 5
ENDMDL
MODEL 6
REMARK VINA RESULT:      -6.5      3.003      5.839
REMARK  Name = 
REMARK  5 active torsions:
REMARK  status: ('A' for Active; 'I' for Inactive)
REMARK    1  A    between atoms: C_2  and  C_3
REMARK    2  A    between atoms: C_3  and  C_4
REMARK    3  A    between atoms: C_4  and  C_5
REMARK    4  A    between atoms: C_5  and  N_6
REMARK    5  A    between atoms: N_11  and  C_12
REMARK                            x       y       z     vdW  Elec       q    Type
REMARK                         _______ _______ _______ _____ _____    ______ ____
ROOT
ATOM      1  O   UNL     1       2.442   8.026  18.477  0.00  0.00    +0.000 OA
ATOM      2  C   UNL     1       2.644   6.990  19.101  0.00  0.00    +0.000 C 
ATOM      3  N   UNL     1       3.664   6.110  18.814  0.00  0.00    +0.000 N 
ATOM      4  H   UNL     1       3.853   5.367  19.475  0.00  0.00    +0.000 HD
ENDROOT
BRANCH   3   5
ATOM      5  C   UNL     1       4.695   6.408  17.819  0.00  0.00    +0.000 C 
ATOM      6  C   UNL     1       6.077   6.025  18.349  0.00  0.00    +0.000 C 
ATOM      7  C   UNL     1       6.219   4.530  18.053  0.00  0.00    +0.000 C 
ATOM      8  C   UNL     1       5.219   4.208  16.932  0.00  0.00    +0.000 C 
ATOM      9  C   UNL     1       5.842   3.714  15.635  0.00  0.00    +0.000 C 
ATOM     10  C   UNL     1       6.368   4.973  14.968  0.00  0.00    +0.000 C 
ATOM     11  C   UNL     1       5.369   6.067  15.348  0.00  0.00    +0.000 C 
ATOM     12  C   UNL     1       4.566   5.544  16.557  0.00  0.00    +0.000 C 
ENDBRANCH   3   5
BRANCH   2  13
ATOM     13  C   UNL     1       1.737   6.542  20.231  0.00  0.00    +0.000 C 
BRANCH  13  14
ATOM     14  C   UNL     1       2.131   5.160  20.747  0.00  0.00    +0.000 C 
BRANCH  14  15
ATOM     15  C   UNL     1       1.452   4.036  19.967  0.00  0.00    +0.000 C 
BRANCH  15  16
ATOM     16  N   UNL     1       2.405   3.042  19.511  0.00  0.00    +0.000 N 
ATOM     17  C   UNL     1       2.298   2.270  18.390  0.00  0.00    +0.000 A 
ATOM     18  C   UNL     1       3.436   1.494  18.391  0.00  0.00    +0.000 A 
ATOM     19  N   UNL     1       4.214   1.770  19.485  0.00  0.00    +0.000 NA
ATOM     20  C   UNL     1       3.567   2.707  20.145  0.00  0.00    +0.000 A 
ENDBRANCH  15  16
ENDBRANCH  14  15
ENDBRANCH  13  14
ENDBRANCH   2  13
TORSDOF 5
ENDMDL
MODEL 7
REMARK VINA RESULT:      -6.5      1.662      2.257
REMARK  Name = 
REMARK  5 active torsions:
REMARK  status: ('A' for Active; 'I' for Inactive)
REMARK    1  A    between atoms: C_2  and  C_3
REMARK    2  A    between atoms: C_3  and  C_4
REMARK    3  A    between atoms: C_4  and  C_5
REMARK    4  A    between atoms: C_5  and  N_6
REMARK    5  A    between atoms: N_11  and  C_12
REMARK                            x       y       z     vdW  Elec       q    Type
REMARK                         _______ _______ _______ _____ _____    ______ ____
ROOT
ATOM      1  O   UNL     1       3.782   7.401  17.824  0.00  0.00    +0.000 OA
ATOM      2  C   UNL     1       4.030   6.379  17.192  0.00  0.00    +0.000 C 
ATOM      3  N   UNL     1       3.418   5.168  17.426  0.00  0.00    +0.000 N 
ATOM      4  H   UNL     1       3.566   4.423  16.757  0.00  0.00    +0.000 HD
ENDROOT
BRANCH   3   5
ATOM      5  C   UNL     1       2.305   5.024  18.364  0.00  0.00    +0.000 C 
ATOM      6  C   UNL     1       1.374   3.894  17.921  0.00  0.00    +0.000 C 
ATOM      7  C   UNL     1       2.007   2.615  18.472  0.00  0.00    +0.000 C 
ATOM      8  C   UNL     1       2.932   3.043  19.622  0.00  0.00    +0.000 C 
ATOM      9  C   UNL     1       2.551   2.497  20.991  0.00  0.00    +0.000 C 
ATOM     10  C   UNL     1       1.393   3.374  21.435  0.00  0.00    +0.000 C 
ATOM     11  C   UNL     1       1.703   4.758  20.863  0.00  0.00    +0.000 C 
ATOM     12  C   UNL     1       2.759   4.561  19.755  0.00  0.00    +0.000 C 
ENDBRANCH   3   5
BRANCH   2  13
ATOM     13  C   UNL     1       5.095   6.340  16.113  0.00  0.00    +0.000 C 
BRANCH  13  14
ATOM     14  C   UNL     1       5.845   5.010  16.120  0.00  0.00    +0.000 C 
BRANCH  14  15
ATOM     15  C   UNL     1       7.173   5.090  15.370  0.00  0.00    +0.000 C 
BRANCH  15  16
ATOM     16  N   UNL     1       7.041   4.663  13.990  0.00  0.00    +0.000 N 
ATOM     17  C   UNL     1       7.739   5.147  12.921  0.00  0.00    +0.000 A 
ATOM     18  C   UNL     1       7.264   4.434  11.842  0.00  0.00    +0.000 A 
ATOM     19  N   UNL     1       6.295   3.547  12.233  0.00  0.00    +0.000 NA
ATOM     20  C   UNL     1       6.180   3.707  13.534  0.00  0.00    +0.000 A 
ENDBRANCH  15  16
ENDBRANCH  14  15
ENDBRANCH  13  14
ENDBRANCH   2  13
TORSDOF 5
ENDMDL
MODEL 8
REMARK VINA RESULT:      -6.5      1.426      1.733
REMARK  Name = 
REMARK  5 active torsions:
REMARK  status: ('A' for Active; 'I' for Inactive)
REMARK    1  A    between atoms: C_2  and  C_3
REMARK    2  A    between atoms: C_3  and  C_4
REMARK    3  A    between atoms: C_4  and  C_5
REMARK    4  A    between atoms: C_5  and  N_6
REMARK    5  A    between atoms: N_11  and  C_12
REMARK                            x       y       z     vdW  Elec       q    Type
REMARK                         _______ _______ _______ _____ _____    ______ ____
ROOT
ATOM      1  O   UNL     1       5.903   6.365  17.652  0.00  0.00    +0.000 OA
ATOM      2  C   UNL     1       5.825   5.171  17.382  0.00  0.00    +0.000 C 
ATOM      3  N   UNL     1       4.925   4.311  17.969  0.00  0.00    +0.000 N 
ATOM      4  H   UNL     1       4.823   3.384  17.574  0.00  0.00    +0.000 HD
ENDROOT
BRANCH   3   5
ATOM      5  C   UNL     1       3.875   4.779  18.875  0.00  0.00    +0.000 C 
ATOM      6  C   UNL     1       2.748   5.449  18.086  0.00  0.00    +0.000 C 
ATOM      7  C   UNL     1       1.845   4.302  17.627  0.00  0.00    +0.000 C 
ATOM      8  C   UNL     1       2.132   3.117  18.561  0.00  0.00    +0.000 C 
ATOM      9  C   UNL     1       0.949   2.657  19.401  0.00  0.00    +0.000 C 
ATOM     10  C   UNL     1       0.867   3.677  20.523  0.00  0.00    +0.000 C 
ATOM     11  C   UNL     1       2.317   4.067  20.809  0.00  0.00    +0.000 C 
ATOM     12  C   UNL     1       3.151   3.629  19.587  0.00  0.00    +0.000 C 
ENDBRANCH   3   5
BRANCH   2  13
ATOM     13  C   UNL     1       6.771   4.506  16.399  0.00  0.00    +0.000 C 
BRANCH  13  14
ATOM     14  C   UNL     1       6.008   3.840  15.257  0.00  0.00    +0.000 C 
BRANCH  14  15
ATOM     15  C   UNL     1       6.499   4.300  13.887  0.00  0.00    +0.000 C 
BRANCH  15  16
ATOM     16  N   UNL     1       5.919   3.516  12.813  0.00  0.00    +0.000 N 
ATOM     17  C   UNL     1       6.499   2.456  12.177  0.00  0.00    +0.000 A 
ATOM     18  C   UNL     1       5.566   2.054  11.246  0.00  0.00    +0.000 A 
ATOM     19  N   UNL     1       4.452   2.850  11.298  0.00  0.00    +0.000 NA
ATOM     20  C   UNL     1       4.692   3.725  12.251  0.00  0.00    +0.000 A 
ENDBRANCH  15  16
ENDBRANCH  14  15
ENDBRANCH  13  14
ENDBRANCH   2  13
TORSDOF 5
ENDMDL
MODEL 9
REMARK VINA RESULT:      -6.5      1.469      1.951
REMARK  Name = 
REMARK  5 active torsions:
REMARK  status: ('A' for Active; 'I' for Inactive)
REMARK    1  A    between atoms: C_2  and  C_3
REMARK    2  A    between atoms: C_3  and  C_4
REMARK    3  A    between atoms: C_4  and  C_5
REMARK    4  A    between atoms: C_5  and  N_6
REMARK    5  A    between atoms: N_11  and  C_12
REMARK                            x       y       z     vdW  Elec       q    Type
REMARK                         _______ _______ _______ _____ _____    ______ ____
ROOT
ATOM      1  O   UNL     1       6.028   5.428  17.378  0.00  0.00    +0.000 OA
ATOM      2  C   UNL     1       5.649   4.374  16.878  0.00  0.00    +0.000 C 
ATOM      3  N   UNL     1       4.704   3.552  17.451  0.00  0.00    +0.000 N 
ATOM      4  H   UNL     1       4.338   2.789  16.898  0.00  0.00    +0.000 HD
ENDROOT
BRANCH   3   5
ATOM      5  C   UNL     1       3.958   3.938  18.650  0.00  0.00    +0.000 C 
ATOM      6  C   UNL     1       2.956   5.046  18.322  0.00  0.00    +0.000 C 
ATOM      7  C   UNL     1       1.721   4.321  17.783  0.00  0.00    +0.000 C 
ATOM      8  C   UNL     1       1.804   2.874  18.291  0.00  0.00    +0.000 C 
ATOM      9  C   UNL     1       0.670   2.449  19.214  0.00  0.00    +0.000 C 
ATOM     10  C   UNL     1       1.026   3.068  20.554  0.00  0.00    +0.000 C 
ATOM     11  C   UNL     1       2.553   3.025  20.617  0.00  0.00    +0.000 C 
ATOM     12  C   UNL     1       3.057   2.812  19.174  0.00  0.00    +0.000 C 
ENDBRANCH   3   5
BRANCH   2  13
ATOM     13  C   UNL     1       6.239   3.838  15.588  0.00  0.00    +0.000 C 
BRANCH  13  14
ATOM     14  C   UNL     1       6.279   4.914  14.506  0.00  0.00    +0.000 C 
BRANCH  14  15
ATOM     15  C   UNL     1       7.000   4.441  13.245  0.00  0.00    +0.000 C 
BRANCH  15  16
ATOM     16  N   UNL     1       6.169   3.561  12.445  0.00  0.00    +0.000 N 
ATOM     17  C   UNL     1       4.858   3.759  12.119  0.00  0.00    +0.000 A 
ATOM     18  C   UNL     1       4.519   2.662  11.358  0.00  0.00    +0.000 A 
ATOM     19  N   UNL     1       5.585   1.809  11.229  0.00  0.00    +0.000 NA
ATOM     20  C   UNL     1       6.567   2.376  11.896  0.00  0.00    +0.000 A 
ENDBRANCH  15  16
ENDBRANCH  14  15
ENDBRANCH  13  14
ENDBRANCH   2  13
TORSDOF 5
ENDMDL
