MODEL 1
REMARK VINA RESULT:      -9.0      0.000      0.000
REMARK  Name = 
REMARK  8 active torsions:
REMARK  status: ('A' for Active; 'I' for Inactive)
REMARK    1  A    between atoms: C_1  and  C_2
REMARK    2  A    between atoms: C_7  and  C_8
REMARK    3  A    between atoms: N_10  and  C_11
REMARK    4  A    between atoms: C_15  and  C_16
REMARK    5  A    between atoms: C_16  and  C_18
REMARK    6  A    between atoms: N_20  and  C_21
REMARK    7  A    between atoms: C_21  and  C_22
REMARK    8  A    between atoms: C_21  and  C_23
REMARK                            x       y       z     vdW  Elec       q    Type
REMARK                         _______ _______ _______ _____ _____    ______ ____
ROOT
ATOM      1  C   UNL     1       1.776   5.349  20.559  0.00  0.00    +0.000 A 
ATOM      2  C   UNL     1       1.963   4.228  21.368  0.00  0.00    +0.000 A 
ATOM      3  N   UNL     1       2.587   3.086  20.980  0.00  0.00    +0.000 NA
ATOM      4  C   UNL     1       3.069   3.057  19.721  0.00  0.00    +0.000 A 
ATOM      5  C   UNL     1       2.948   4.115  18.834  0.00  0.00    +0.000 A 
ATOM      6  C   UNL     1       2.255   5.268  19.249  0.00  0.00    +0.000 A 
ENDROOT
BRANCH   1   9
ATOM      7  C   UNL     1       1.433   7.816  20.535  0.00  0.00    +0.000 C 
ATOM      8  O   UNL     1       2.264   8.066  19.665  0.00  0.00    +0.000 OA
ATOM      9  N   UNL     1       1.138   6.537  20.994  0.00  0.00    +0.000 N 
ATOM     10  H   UNL     1       0.353   6.480  21.638  0.00  0.00    +0.000 HD
BRANCH   7  17
ATOM     11  C   UNL     1       0.066  10.014  18.887  0.00  0.00    +0.000 C 
ATOM     12  C   UNL     1       0.003   9.930  20.386  0.00  0.00    +0.000 A 
ATOM     13  C   UNL     1      -0.707  10.916  21.079  0.00  0.00    +0.000 A 
ATOM     14  C   UNL     1      -0.782  10.882  22.467  0.00  0.00    +0.000 A 
ATOM     15  C   UNL     1      -0.142   9.851  23.133  0.00  0.00    +0.000 A 
ATOM     16  N   UNL     1       0.551   8.868  22.518  0.00  0.00    +0.000 NA
ATOM     17  C   UNL     1       0.622   8.927  21.153  0.00  0.00    +0.000 A 
ENDBRANCH   7  17
ENDBRANCH   1   9
BRANCH   5  18
ATOM     18  C   UNL     1       3.524   3.953  17.480  0.00  0.00    +0.000 C 
ATOM     19  O   UNL     1       2.885   3.330  16.636  0.00  0.00    +0.000 OA
BRANCH  18  20
ATOM     20  C   UNL     1       4.810   4.558  17.163  0.00  0.00    +0.000 A 
ATOM     21  C   UNL     1       5.632   5.295  18.002  0.00  0.00    +0.000 A 
ATOM     22  N   UNL     1       6.745   5.694  17.288  0.00  0.00    +0.000 N 
ATOM     23  C   UNL     1       6.655   5.208  16.006  0.00  0.00    +0.000 A 
ATOM     24  N   UNL     1       7.543   5.406  15.015  0.00  0.00    +0.000 NA
ATOM     25  C   UNL     1       7.171   4.791  13.876  0.00  0.00    +0.000 A 
ATOM     26  N   UNL     1       6.072   4.046  13.651  0.00  0.00    +0.000 NA
ATOM     27  C   UNL     1       5.213   3.876  14.679  0.00  0.00    +0.000 A 
ATOM     28  C   UNL     1       5.480   4.472  15.910  0.00  0.00    +0.000 A 
BRANCH  22  29
ATOM     29  C   UNL     1       7.835   6.487  17.854  0.00  0.00    +0.000 C 
ATOM     30  C   UNL     1       7.665   7.986  17.602  0.00  0.00    +0.000 C 
ATOM     31  C   UNL     1       8.078   6.202  19.337  0.00  0.00    +0.000 C 
ENDBRANCH  22  29
ENDBRANCH  18  20
ENDBRANCH   5  18
TORSDOF 5
ENDMDL
MODEL 2
REMARK VINA RESULT:      -8.6      1.684      3.067
REMARK  Name = 
REMARK  8 active torsions:
REMARK  status: ('A' for Active; 'I' for Inactive)
REMARK    1  A    between atoms: C_1  and  C_2
REMARK    2  A    between atoms: C_7  and  C_8
REMARK    3  A    between atoms: N_10  and  C_11
REMARK    4  A    between atoms: C_15  and  C_16
REMARK    5  A    between atoms: C_16  and  C_18
REMARK    6  A    between atoms: N_20  and  C_21
REMARK    7  A    between atoms: C_21  and  C_22
REMARK    8  A    between atoms: C_21  and  C_23
REMARK                            x       y       z     vdW  Elec       q    Type
REMARK                         _______ _______ _______ _____ _____    ______ ____
ROOT
ATOM      1  C   UNL     1       1.859   7.017  19.773  0.00  0.00    +0.000 A 
ATOM      2  C   UNL     1       1.784   6.300  20.968  0.00  0.00    +0.000 A 
ATOM      3  N   UNL     1       2.021   4.969  21.091  0.00  0.00    +0.000 NA
ATOM      4  C   UNL     1       2.367   4.308  19.967  0.00  0.00    +0.000 A 
ATOM      5  C   UNL     1       2.481   4.920  18.728  0.00  0.00    +0.000 A 
ATOM      6  C   UNL     1       2.184   6.292  18.623  0.00  0.00    +0.000 A 
ENDROOT
BRANCH   1   9
ATOM      7  C   UNL     1       0.675   9.116  20.403  0.00  0.00    +0.000 C 
ATOM      8  O   UNL     1      -0.057   8.615  21.253  0.00  0.00    +0.000 OA
ATOM      9  N   UNL     1       1.626   8.410  19.674  0.00  0.00    +0.000 N 
ATOM     10  H   UNL     1       2.230   8.981  19.087  0.00  0.00    +0.000 HD
BRANCH   7  17
ATOM     11  C   UNL     1      -0.848  10.304  18.020  0.00  0.00    +0.000 C 
ATOM     12  C   UNL     1      -0.089  11.126  19.023  0.00  0.00    +0.000 A 
ATOM     13  C   UNL     1      -0.059  12.516  18.858  0.00  0.00    +0.000 A 
ATOM     14  C   UNL     1       0.640  13.313  19.757  0.00  0.00    +0.000 A 
ATOM     15  C   UNL     1       1.296  12.696  20.809  0.00  0.00    +0.000 A 
ATOM     16  N   UNL     1       1.295  11.363  21.022  0.00  0.00    +0.000 NA
ATOM     17  C   UNL     1       0.611  10.595  20.120  0.00  0.00    +0.000 A 
ENDBRANCH   7  17
ENDBRANCH   1   9
BRANCH   5  18
ATOM     18  C   UNL     1       2.871   4.079  17.575  0.00  0.00    +0.000 C 
ATOM     19  O   UNL     1       2.039   3.314  17.092  0.00  0.00    +0.000 OA
BRANCH  18  20
ATOM     20  C   UNL     1       4.210   4.195  17.013  0.00  0.00    +0.000 A 
ATOM     21  C   UNL     1       4.595   4.017  15.694  0.00  0.00    +0.000 A 
ATOM     22  N   UNL     1       5.961   4.204  15.605  0.00  0.00    +0.000 N 
ATOM     23  C   UNL     1       6.453   4.515  16.850  0.00  0.00    +0.000 A 
ATOM     24  N   UNL     1       7.741   4.748  17.161  0.00  0.00    +0.000 NA
ATOM     25  C   UNL     1       7.899   5.035  18.467  0.00  0.00    +0.000 A 
ATOM     26  N   UNL     1       6.955   5.108  19.425  0.00  0.00    +0.000 NA
ATOM     27  C   UNL     1       5.677   4.868  19.061  0.00  0.00    +0.000 A 
ATOM     28  C   UNL     1       5.384   4.549  17.736  0.00  0.00    +0.000 A 
BRANCH  22  29
ATOM     29  C   UNL     1       6.719   4.100  14.359  0.00  0.00    +0.000 C 
ATOM     30  C   UNL     1       5.870   3.589  13.195  0.00  0.00    +0.000 C 
ATOM     31  C   UNL     1       7.443   5.395  13.988  0.00  0.00    +0.000 C 
ENDBRANCH  22  29
ENDBRANCH  18  20
ENDBRANCH   5  18
TORSDOF 5
ENDMDL
MODEL 3
REMARK VINA RESULT:      -8.5      3.611      9.540
REMARK  Name = 
REMARK  8 active torsions:
REMARK  status: ('A' for Active; 'I' for Inactive)
REMARK    1  A    between atoms: C_1  and  C_2
REMARK    2  A    between atoms: C_7  and  C_8
REMARK    3  A    between atoms: N_10  and  C_11
REMARK    4  A    between atoms: C_15  and  C_16
REMARK    5  A    between atoms: C_16  and  C_18
REMARK    6  A    between atoms: N_20  and  C_21
REMARK    7  A    between atoms: C_21  and  C_22
REMARK    8  A    between atoms: C_21  and  C_23
REMARK                            x       y       z     vdW  Elec       q    Type
REMARK                         _______ _______ _______ _____ _____    ______ ____
ROOT
ATOM      1  C   UNL     1       1.351   8.491  20.220  0.00  0.00    +0.000 A 
ATOM      2  C   UNL     1       0.897   8.307  21.527  0.00  0.00    +0.000 A 
ATOM      3  N   UNL     1       0.076   9.161  22.191  0.00  0.00    +0.000 NA
ATOM      4  C   UNL     1      -0.332  10.256  21.517  0.00  0.00    +0.000 A 
ATOM      5  C   UNL     1       0.049  10.535  20.214  0.00  0.00    +0.000 A 
ATOM      6  C   UNL     1       0.937   9.655  19.567  0.00  0.00    +0.000 A 
ENDROOT
BRANCH   1   9
ATOM      7  C   UNL     1       2.348   6.234  19.878  0.00  0.00    +0.000 C 
ATOM      8  O   UNL     1       1.743   5.673  20.788  0.00  0.00    +0.000 OA
ATOM      9  N   UNL     1       2.192   7.575  19.542  0.00  0.00    +0.000 N 
ATOM     10  H   UNL     1       2.678   7.867  18.698  0.00  0.00    +0.000 HD
BRANCH   7  17
ATOM     11  C   UNL     1       1.434   4.394  17.599  0.00  0.00    +0.000 C 
ATOM     12  C   UNL     1       2.873   4.616  17.970  0.00  0.00    +0.000 A 
ATOM     13  C   UNL     1       3.859   3.936  17.247  0.00  0.00    +0.000 A 
ATOM     14  C   UNL     1       5.202   4.104  17.563  0.00  0.00    +0.000 A 
ATOM     15  C   UNL     1       5.529   4.958  18.603  0.00  0.00    +0.000 A 
ATOM     16  N   UNL     1       4.622   5.647  19.330  0.00  0.00    +0.000 NA
ATOM     17  C   UNL     1       3.306   5.458  19.009  0.00  0.00    +0.000 A 
ENDBRANCH   7  17
ENDBRANCH   1   9
BRANCH   5  18
ATOM     18  C   UNL     1      -0.474  11.771  19.590  0.00  0.00    +0.000 C 
ATOM     19  O   UNL     1       0.302  12.701  19.380  0.00  0.00    +0.000 OA
BRANCH  18  20
ATOM     20  C   UNL     1      -1.876  11.852  19.206  0.00  0.00    +0.000 A 
ATOM     21  C   UNL     1      -2.925  12.393  19.933  0.00  0.00    +0.000 A 
ATOM     22  N   UNL     1      -4.088  12.243  19.204  0.00  0.00    +0.000 N 
ATOM     23  C   UNL     1      -3.796  11.627  18.011  0.00  0.00    +0.000 A 
ATOM     24  N   UNL     1      -4.675  11.298  17.047  0.00  0.00    +0.000 NA
ATOM     25  C   UNL     1      -4.073  10.712  15.995  0.00  0.00    +0.000 A 
ATOM     26  N   UNL     1      -2.763  10.444  15.827  0.00  0.00    +0.000 NA
ATOM     27  C   UNL     1      -1.921  10.796  16.823  0.00  0.00    +0.000 A 
ATOM     28  C   UNL     1      -2.425  11.403  17.972  0.00  0.00    +0.000 A 
BRANCH  22  29
ATOM     29  C   UNL     1      -5.400  12.704  19.657  0.00  0.00    +0.000 C 
ATOM     30  C   UNL     1      -6.255  11.574  20.230  0.00  0.00    +0.000 C 
ATOM     31  C   UNL     1      -5.319  13.882  20.629  0.00  0.00    +0.000 C 
ENDBRANCH  22  29
ENDBRANCH  18  20
ENDBRANCH   5  18
TORSDOF 5
ENDMDL
MODEL 4
REMARK VINA RESULT:      -8.5      1.037      2.555
REMARK  Name = 
REMARK  8 active torsions:
REMARK  status: ('A' for Active; 'I' for Inactive)
REMARK    1  A    between atoms: C_1  and  C_2
REMARK    2  A    between atoms: C_7  and  C_8
REMARK    3  A    between atoms: N_10  and  C_11
REMARK    4  A    between atoms: C_15  and  C_16
REMARK    5  A    between atoms: C_16  and  C_18
REMARK    6  A    between atoms: N_20  and  C_21
REMARK    7  A    between atoms: C_21  and  C_22
REMARK    8  A    between atoms: C_21  and  C_23
REMARK                            x       y       z     vdW  Elec       q    Type
REMARK                         _______ _______ _______ _____ _____    ______ ____
ROOT
ATOM      1  C   UNL     1       1.799   5.117  20.678  0.00  0.00    +0.000 A 
ATOM      2  C   UNL     1       2.081   4.131  21.624  0.00  0.00    +0.000 A 
ATOM      3  N   UNL     1       2.631   2.921  21.344  0.00  0.00    +0.000 NA
ATOM      4  C   UNL     1       2.935   2.678  20.053  0.00  0.00    +0.000 A 
ATOM      5  C   UNL     1       2.708   3.588  19.032  0.00  0.00    +0.000 A 
ATOM      6  C   UNL     1       2.094   4.815  19.346  0.00  0.00    +0.000 A 
ENDROOT
BRANCH   1   9
ATOM      7  C   UNL     1       1.638   7.592  20.441  0.00  0.00    +0.000 C 
ATOM      8  O   UNL     1       2.498   7.707  19.572  0.00  0.00    +0.000 OA
ATOM      9  N   UNL     1       1.243   6.380  20.999  0.00  0.00    +0.000 N 
ATOM     10  H   UNL     1       0.445   6.434  21.627  0.00  0.00    +0.000 HD
BRANCH   7  17
ATOM     11  C   UNL     1       0.599   9.813  18.597  0.00  0.00    +0.000 C 
ATOM     12  C   UNL     1       0.431   9.818  20.091  0.00  0.00    +0.000 A 
ATOM     13  C   UNL     1      -0.223  10.903  20.684  0.00  0.00    +0.000 A 
ATOM     14  C   UNL     1      -0.391  10.952  22.063  0.00  0.00    +0.000 A 
ATOM     15  C   UNL     1       0.103   9.905  22.821  0.00  0.00    +0.000 A 
ATOM     16  N   UNL     1       0.735   8.829  22.305  0.00  0.00    +0.000 NA
ATOM     17  C   UNL     1       0.900   8.806  20.947  0.00  0.00    +0.000 A 
ENDBRANCH   7  17
ENDBRANCH   1   9
BRANCH   5  18
ATOM     18  C   UNL     1       3.091   3.196  17.657  0.00  0.00    +0.000 C 
ATOM     19  O   UNL     1       2.310   2.514  16.998  0.00  0.00    +0.000 OA
BRANCH  18  20
ATOM     20  C   UNL     1       4.358   3.649  17.101  0.00  0.00    +0.000 A 
ATOM     21  C   UNL     1       4.787   3.563  15.785  0.00  0.00    +0.000 A 
ATOM     22  N   UNL     1       6.058   4.096  15.701  0.00  0.00    +0.000 N 
ATOM     23  C   UNL     1       6.444   4.537  16.944  0.00  0.00    +0.000 A 
ATOM     24  N   UNL     1       7.625   5.098  17.259  0.00  0.00    +0.000 NA
ATOM     25  C   UNL     1       7.694   5.430  18.562  0.00  0.00    +0.000 A 
ATOM     26  N   UNL     1       6.755   5.265  19.515  0.00  0.00    +0.000 NA
ATOM     27  C   UNL     1       5.586   4.699  19.147  0.00  0.00    +0.000 A 
ATOM     28  C   UNL     1       5.395   4.302  17.825  0.00  0.00    +0.000 A 
BRANCH  22  29
ATOM     29  C   UNL     1       6.826   4.180  14.460  0.00  0.00    +0.000 C 
ATOM     30  C   UNL     1       6.050   3.658  13.251  0.00  0.00    +0.000 C 
ATOM     31  C   UNL     1       7.387   5.578  14.195  0.00  0.00    +0.000 C 
ENDBRANCH  22  29
ENDBRANCH  18  20
ENDBRANCH   5  18
TORSDOF 5
ENDMDL
MODEL 5
REMARK VINA RESULT:      -8.5      2.687      4.733
REMARK  Name = 
REMARK  8 active torsions:
REMARK  status: ('A' for Active; 'I' for Inactive)
REMARK    1  A    between atoms: C_1  and  C_2
REMARK    2  A    between atoms: C_7  and  C_8
REMARK    3  A    between atoms: N_10  and  C_11
REMARK    4  A    between atoms: C_15  and  C_16
REMARK    5  A    between atoms: C_16  and  C_18
REMARK    6  A    between atoms: N_20  and  C_21
REMARK    7  A    between atoms: C_21  and  C_22
REMARK    8  A    between atoms: C_21  and  C_23
REMARK                            x       y       z     vdW  Elec       q    Type
REMARK                         _______ _______ _______ _____ _____    ______ ____
ROOT
ATOM      1  C   UNL     1       1.048  10.254  19.516  0.00  0.00    +0.000 A 
ATOM      2  C   UNL     1       1.498  10.366  18.200  0.00  0.00    +0.000 A 
ATOM      3  N   UNL     1       2.108   9.374  17.501  0.00  0.00    +0.000 NA
ATOM      4  C   UNL     1       2.271   8.196  18.138  0.00  0.00    +0.000 A 
ATOM      5  C   UNL     1       1.855   7.970  19.441  0.00  0.00    +0.000 A 
ATOM      6  C   UNL     1       1.267   9.031  20.155  0.00  0.00    +0.000 A 
ENDROOT
BRANCH   1   9
ATOM      7  C   UNL     1      -0.947  11.636  20.079  0.00  0.00    +0.000 C 
ATOM      8  O   UNL     1      -1.740  11.041  19.353  0.00  0.00    +0.000 OA
ATOM      9  N   UNL     1       0.395  11.297  20.217  0.00  0.00    +0.000 N 
ATOM     10  H   UNL     1       0.898  11.813  20.935  0.00  0.00    +0.000 HD
BRANCH   7  17
ATOM     11  C   UNL     1      -1.581  11.371  23.070  0.00  0.00    +0.000 C 
ATOM     12  C   UNL     1      -1.702  12.655  22.298  0.00  0.00    +0.000 A 
ATOM     13  C   UNL     1      -2.144  13.798  22.974  0.00  0.00    +0.000 A 
ATOM     14  C   UNL     1      -2.280  15.004  22.296  0.00  0.00    +0.000 A 
ATOM     15  C   UNL     1      -1.967  15.038  20.948  0.00  0.00    +0.000 A 
ATOM     16  N   UNL     1      -1.529  13.970  20.246  0.00  0.00    +0.000 NA
ATOM     17  C   UNL     1      -1.413  12.791  20.929  0.00  0.00    +0.000 A 
ENDBRANCH   7  17
ENDBRANCH   1   9
BRANCH   5  18
ATOM     18  C   UNL     1       2.092   6.629  20.019  0.00  0.00    +0.000 C 
ATOM     19  O   UNL     1       1.476   6.304  21.032  0.00  0.00    +0.000 OA
BRANCH  18  20
ATOM     20  C   UNL     1       3.015   5.711  19.367  0.00  0.00    +0.000 A 
ATOM     21  C   UNL     1       4.378   5.874  19.171  0.00  0.00    +0.000 A 
ATOM     22  N   UNL     1       4.860   4.771  18.493  0.00  0.00    +0.000 N 
ATOM     23  C   UNL     1       3.825   3.896  18.264  0.00  0.00    +0.000 A 
ATOM     24  N   UNL     1       3.905   2.721  17.615  0.00  0.00    +0.000 NA
ATOM     25  C   UNL     1       2.715   2.093  17.563  0.00  0.00    +0.000 A 
ATOM     26  N   UNL     1       1.534   2.501  18.068  0.00  0.00    +0.000 NA
ATOM     27  C   UNL     1       1.508   3.687  18.713  0.00  0.00    +0.000 A 
ATOM     28  C   UNL     1       2.675   4.439  18.825  0.00  0.00    +0.000 A 
BRANCH  22  29
ATOM     29  C   UNL     1       6.262   4.594  18.118  0.00  0.00    +0.000 C 
ATOM     30  C   UNL     1       6.492   4.741  16.614  0.00  0.00    +0.000 C 
ATOM     31  C   UNL     1       7.214   5.489  18.912  0.00  0.00    +0.000 C 
ENDBRANCH  22  29
ENDBRANCH  18  20
ENDBRANCH   5  18
TORSDOF 5
ENDMDL
MODEL 6
REMARK VINA RESULT:      -8.4      2.612      4.738
REMARK  Name = 
REMARK  8 active torsions:
REMARK  status: ('A' for Active; 'I' for Inactive)
REMARK    1  A    between atoms: C_1  and  C_2
REMARK    2  A    between atoms: C_7  and  C_8
REMARK    3  A    between atoms: N_10  and  C_11
REMARK    4  A    between atoms: C_15  and  C_16
REMARK    5  A    between atoms: C_16  and  C_18
REMARK    6  A    between atoms: N_20  and  C_21
REMARK    7  A    between atoms: C_21  and  C_22
REMARK    8  A    between atoms: C_21  and  C_23
REMARK                            x       y       z     vdW  Elec       q    Type
REMARK                         _______ _______ _______ _____ _____    ______ ____
ROOT
ATOM      1  C   UNL     1       0.846  10.168  19.521  0.00  0.00    +0.000 A 
ATOM      2  C   UNL     1       1.361  10.396  18.243  0.00  0.00    +0.000 A 
ATOM      3  N   UNL     1       2.109   9.509  17.539  0.00  0.00    +0.000 NA
ATOM      4  C   UNL     1       2.352   8.319  18.126  0.00  0.00    +0.000 A 
ATOM      5  C   UNL     1       1.883   7.982  19.386  0.00  0.00    +0.000 A 
ATOM      6  C   UNL     1       1.149   8.939  20.112  0.00  0.00    +0.000 A 
ENDROOT
BRANCH   1   9
ATOM      7  C   UNL     1       0.542  12.103  21.059  0.00  0.00    +0.000 C 
ATOM      8  O   UNL     1       1.736  12.321  21.251  0.00  0.00    +0.000 OA
ATOM      9  N   UNL     1       0.051  11.102  20.228  0.00  0.00    +0.000 N 
ATOM     10  H   UNL     1      -0.956  11.116  20.085  0.00  0.00    +0.000 HD
BRANCH   7  17
ATOM     11  C   UNL     1      -1.407  11.078  23.196  0.00  0.00    +0.000 C 
ATOM     12  C   UNL     1      -1.392  12.491  22.685  0.00  0.00    +0.000 A 
ATOM     13  C   UNL     1      -2.328  13.395  23.199  0.00  0.00    +0.000 A 
ATOM     14  C   UNL     1      -2.356  14.709  22.747  0.00  0.00    +0.000 A 
ATOM     15  C   UNL     1      -1.437  15.091  21.785  0.00  0.00    +0.000 A 
ATOM     16  N   UNL     1      -0.506  14.267  21.258  0.00  0.00    +0.000 NA
ATOM     17  C   UNL     1      -0.503  12.975  21.709  0.00  0.00    +0.000 A 
ENDBRANCH   7  17
ENDBRANCH   1   9
BRANCH   5  18
ATOM     18  C   UNL     1       2.220   6.640  19.913  0.00  0.00    +0.000 C 
ATOM     19  O   UNL     1       1.812   6.324  21.028  0.00  0.00    +0.000 OA
BRANCH  18  20
ATOM     20  C   UNL     1       2.991   5.713  19.097  0.00  0.00    +0.000 A 
ATOM     21  C   UNL     1       4.214   5.938  18.483  0.00  0.00    +0.000 A 
ATOM     22  N   UNL     1       4.575   4.798  17.792  0.00  0.00    +0.000 N 
ATOM     23  C   UNL     1       3.606   3.840  17.969  0.00  0.00    +0.000 A 
ATOM     24  N   UNL     1       3.601   2.605  17.434  0.00  0.00    +0.000 NA
ATOM     25  C   UNL     1       2.514   1.902  17.804  0.00  0.00    +0.000 A 
ATOM     26  N   UNL     1       1.502   2.290  18.604  0.00  0.00    +0.000 NA
ATOM     27  C   UNL     1       1.556   3.537  19.117  0.00  0.00    +0.000 A 
ATOM     28  C   UNL     1       2.628   4.370  18.800  0.00  0.00    +0.000 A 
BRANCH  22  29
ATOM     29  C   UNL     1       5.814   4.667  17.027  0.00  0.00    +0.000 C 
ATOM     30  C   UNL     1       5.853   5.589  15.808  0.00  0.00    +0.000 C 
ATOM     31  C   UNL     1       7.069   4.832  17.884  0.00  0.00    +0.000 C 
ENDBRANCH  22  29
ENDBRANCH  18  20
ENDBRANCH   5  18
TORSDOF 5
ENDMDL
MODEL 7
REMARK VINA RESULT:      -8.3      1.871      2.437
REMARK  Name = 
REMARK  8 active torsions:
REMARK  status: ('A' for Active; 'I' for Inactive)
REMARK    1  A    between atoms: C_1  and  C_2
REMARK    2  A    between atoms: C_7  and  C_8
REMARK    3  A    between atoms: N_10  and  C_11
REMARK    4  A    between atoms: C_15  and  C_16
REMARK    5  A    between atoms: C_16  and  C_18
REMARK    6  A    between atoms: N_20  and  C_21
REMARK    7  A    between atoms: C_21  and  C_22
REMARK    8  A    between atoms: C_21  and  C_23
REMARK                            x       y       z     vdW  Elec       q    Type
REMARK                         _______ _______ _______ _____ _____    ______ ____
ROOT
ATOM      1  C   UNL     1       1.769   7.598  19.741  0.00  0.00    +0.000 A 
ATOM      2  C   UNL     1       1.206   6.779  20.721  0.00  0.00    +0.000 A 
ATOM      3  N   UNL     1       1.293   5.425  20.744  0.00  0.00    +0.000 NA
ATOM      4  C   UNL     1       1.990   4.845  19.746  0.00  0.00    +0.000 A 
ATOM      5  C   UNL     1       2.598   5.560  18.725  0.00  0.00    +0.000 A 
ATOM      6  C   UNL     1       2.452   6.960  18.703  0.00  0.00    +0.000 A 
ENDROOT
BRANCH   1   9
ATOM      7  C   UNL     1       1.107   9.783  18.745  0.00  0.00    +0.000 C 
ATOM      8  O   UNL     1       0.571   9.324  17.740  0.00  0.00    +0.000 OA
ATOM      9  N   UNL     1       1.681   9.012  19.750  0.00  0.00    +0.000 N 
ATOM     10  H   UNL     1       1.988   9.530  20.570  0.00  0.00    +0.000 HD
BRANCH   7  17
ATOM     11  C   UNL     1      -0.935  11.252  20.504  0.00  0.00    +0.000 C 
ATOM     12  C   UNL     1       0.194  11.933  19.784  0.00  0.00    +0.000 A 
ATOM     13  C   UNL     1       0.320  13.322  19.906  0.00  0.00    +0.000 A 
ATOM     14  C   UNL     1       1.343  13.994  19.248  0.00  0.00    +0.000 A 
ATOM     15  C   UNL     1       2.226  13.255  18.480  0.00  0.00    +0.000 A 
ATOM     16  N   UNL     1       2.159  11.914  18.331  0.00  0.00    +0.000 NA
ATOM     17  C   UNL     1       1.138  11.273  18.977  0.00  0.00    +0.000 A 
ENDBRANCH   7  17
ENDBRANCH   1   9
BRANCH   5  18
ATOM     18  C   UNL     1       3.336   4.800  17.692  0.00  0.00    +0.000 C 
ATOM     19  O   UNL     1       2.778   3.850  17.146  0.00  0.00    +0.000 OA
BRANCH  18  20
ATOM     20  C   UNL     1       4.683   5.205  17.317  0.00  0.00    +0.000 A 
ATOM     21  C   UNL     1       5.584   5.949  18.064  0.00  0.00    +0.000 A 
ATOM     22  N   UNL     1       6.736   6.119  17.321  0.00  0.00    +0.000 N 
ATOM     23  C   UNL     1       6.590   5.480  16.113  0.00  0.00    +0.000 A 
ATOM     24  N   UNL     1       7.496   5.441  15.119  0.00  0.00    +0.000 NA
ATOM     25  C   UNL     1       7.056   4.726  14.066  0.00  0.00    +0.000 A 
ATOM     26  N   UNL     1       5.877   4.089  13.925  0.00  0.00    +0.000 NA
ATOM     27  C   UNL     1       5.004   4.157  14.952  0.00  0.00    +0.000 A 
ATOM     28  C   UNL     1       5.339   4.877  16.097  0.00  0.00    +0.000 A 
BRANCH  22  29
ATOM     29  C   UNL     1       7.910   6.851  17.794  0.00  0.00    +0.000 C 
ATOM     30  C   UNL     1       7.764   8.364  17.635  0.00  0.00    +0.000 C 
ATOM     31  C   UNL     1       8.312   6.482  19.222  0.00  0.00    +0.000 C 
ENDBRANCH  22  29
ENDBRANCH  18  20
ENDBRANCH   5  18
TORSDOF 5
ENDMDL
MODEL 8
REMARK VINA RESULT:      -8.3      2.669      4.634
REMARK  Name = 
REMARK  8 active torsions:
REMARK  status: ('A' for Active; 'I' for Inactive)
REMARK    1  A    between atoms: C_1  and  C_2
REMARK    2  A    between atoms: C_7  and  C_8
REMARK    3  A    between atoms: N_10  and  C_11
REMARK    4  A    between atoms: C_15  and  C_16
REMARK    5  A    between atoms: C_16  and  C_18
REMARK    6  A    between atoms: N_20  and  C_21
REMARK    7  A    between atoms: C_21  and  C_22
REMARK    8  A    between atoms: C_21  and  C_23
REMARK                            x       y       z     vdW  Elec       q    Type
REMARK                         _______ _______ _______ _____ _____    ______ ____
ROOT
ATOM      1  C   UNL     1       0.900  10.207  19.516  0.00  0.00    +0.000 A 
ATOM      2  C   UNL     1       1.394  10.384  18.223  0.00  0.00    +0.000 A 
ATOM      3  N   UNL     1       2.100   9.455  17.528  0.00  0.00    +0.000 NA
ATOM      4  C   UNL     1       2.318   8.275  18.143  0.00  0.00    +0.000 A 
ATOM      5  C   UNL     1       1.867   7.987  19.422  0.00  0.00    +0.000 A 
ATOM      6  C   UNL     1       1.177   8.986  20.135  0.00  0.00    +0.000 A 
ENDROOT
BRANCH   1   9
ATOM      7  C   UNL     1       0.688  12.248  20.929  0.00  0.00    +0.000 C 
ATOM      8  O   UNL     1       1.890  12.487  21.013  0.00  0.00    +0.000 OA
ATOM      9  N   UNL     1       0.148  11.185  20.212  0.00  0.00    +0.000 N 
ATOM     10  H   UNL     1      -0.867  11.181  20.146  0.00  0.00    +0.000 HD
BRANCH   7  17
ATOM     11  C   UNL     1      -0.588  14.655  19.518  0.00  0.00    +0.000 C 
ATOM     12  C   UNL     1      -0.891  14.257  20.935  0.00  0.00    +0.000 A 
ATOM     13  C   UNL     1      -1.797  15.035  21.665  0.00  0.00    +0.000 A 
ATOM     14  C   UNL     1      -2.099  14.708  22.982  0.00  0.00    +0.000 A 
ATOM     15  C   UNL     1      -1.483  13.602  23.541  0.00  0.00    +0.000 A 
ATOM     16  N   UNL     1      -0.607  12.811  22.884  0.00  0.00    +0.000 NA
ATOM     17  C   UNL     1      -0.316  13.156  21.592  0.00  0.00    +0.000 A 
ENDBRANCH   7  17
ENDBRANCH   1   9
BRANCH   5  18
ATOM     18  C   UNL     1       2.173   6.651  19.979  0.00  0.00    +0.000 C 
ATOM     19  O   UNL     1       1.664   6.325  21.049  0.00  0.00    +0.000 OA
BRANCH  18  20
ATOM     20  C   UNL     1       3.036   5.738  19.241  0.00  0.00    +0.000 A 
ATOM     21  C   UNL     1       4.339   5.955  18.823  0.00  0.00    +0.000 A 
ATOM     22  N   UNL     1       4.774   4.836  18.140  0.00  0.00    +0.000 N 
ATOM     23  C   UNL     1       3.769   3.898  18.129  0.00  0.00    +0.000 A 
ATOM     24  N   UNL     1       3.816   2.688  17.543  0.00  0.00    +0.000 NA
ATOM     25  C   UNL     1       2.672   1.999  17.718  0.00  0.00    +0.000 A 
ATOM     26  N   UNL     1       1.562   2.381  18.380  0.00  0.00    +0.000 NA
ATOM     27  C   UNL     1       1.567   3.604  18.952  0.00  0.00    +0.000 A 
ATOM     28  C   UNL     1       2.691   4.419  18.834  0.00  0.00    +0.000 A 
BRANCH  22  29
ATOM     29  C   UNL     1       6.108   4.703  17.558  0.00  0.00    +0.000 C 
ATOM     30  C   UNL     1       6.195   5.284  16.147  0.00  0.00    +0.000 C 
ATOM     31  C   UNL     1       7.213   5.263  18.455  0.00  0.00    +0.000 C 
ENDBRANCH  22  29
ENDBRANCH  18  20
ENDBRANCH   5  18
TORSDOF 5
ENDMDL
MODEL 9
REMARK VINA RESULT:      -8.3      2.959      9.343
REMARK  Name = 
REMARK  8 active torsions:
REMARK  status: ('A' for Active; 'I' for Inactive)
REMARK    1  A    between atoms: C_1  and  C_2
REMARK    2  A    between atoms: C_7  and  C_8
REMARK    3  A    between atoms: N_10  and  C_11
REMARK    4  A    between atoms: C_15  and  C_16
REMARK    5  A    between atoms: C_16  and  C_18
REMARK    6  A    between atoms: N_20  and  C_21
REMARK    7  A    between atoms: C_21  and  C_22
REMARK    8  A    between atoms: C_21  and  C_23
REMARK                            x       y       z     vdW  Elec       q    Type
REMARK                         _______ _______ _______ _____ _____    ______ ____
ROOT
ATOM      1  C   UNL     1       2.566   7.502  18.582  0.00  0.00    +0.000 A 
ATOM      2  C   UNL     1       2.130   7.028  19.820  0.00  0.00    +0.000 A 
ATOM      3  N   UNL     1       1.392   7.742  20.708  0.00  0.00    +0.000 NA
ATOM      4  C   UNL     1       1.052   8.995  20.345  0.00  0.00    +0.000 A 
ATOM      5  C   UNL     1       1.422   9.565  19.136  0.00  0.00    +0.000 A 
ATOM      6  C   UNL     1       2.226   8.817  18.256  0.00  0.00    +0.000 A 
ENDROOT
BRANCH   1   9
ATOM      7  C   UNL     1       4.499   6.058  17.962  0.00  0.00    +0.000 C 
ATOM      8  O   UNL     1       5.013   6.024  19.077  0.00  0.00    +0.000 OA
ATOM      9  N   UNL     1       3.318   6.730  17.663  0.00  0.00    +0.000 N 
ATOM     10  H   UNL     1       2.961   6.576  16.723  0.00  0.00    +0.000 HD
BRANCH   7  17
ATOM     11  C   UNL     1       3.967   3.086  17.415  0.00  0.00    +0.000 C 
ATOM     12  C   UNL     1       4.872   3.943  16.576  0.00  0.00    +0.000 A 
ATOM     13  C   UNL     1       5.526   3.354  15.488  0.00  0.00    +0.000 A 
ATOM     14  C   UNL     1       6.381   4.108  14.692  0.00  0.00    +0.000 A 
ATOM     15  C   UNL     1       6.560   5.445  15.005  0.00  0.00    +0.000 A 
ATOM     16  N   UNL     1       5.951   6.068  16.036  0.00  0.00    +0.000 NA
ATOM     17  C   UNL     1       5.123   5.306  16.814  0.00  0.00    +0.000 A 
ENDBRANCH   7  17
ENDBRANCH   1   9
BRANCH   5  18
ATOM     18  C   UNL     1       0.980  10.950  18.861  0.00  0.00    +0.000 C 
ATOM     19  O   UNL     1       1.787  11.745  18.385  0.00  0.00    +0.000 OA
BRANCH  18  20
ATOM     20  C   UNL     1      -0.400  11.336  19.123  0.00  0.00    +0.000 A 
ATOM     21  C   UNL     1      -0.878  12.130  20.154  0.00  0.00    +0.000 A 
ATOM     22  N   UNL     1      -2.251  12.224  20.036  0.00  0.00    +0.000 N 
ATOM     23  C   UNL     1      -2.657  11.513  18.933  0.00  0.00    +0.000 A 
ATOM     24  N   UNL     1      -3.924  11.359  18.507  0.00  0.00    +0.000 NA
ATOM     25  C   UNL     1      -3.991  10.611  17.389  0.00  0.00    +0.000 A 
ATOM     26  N   UNL     1      -2.980  10.044  16.703  0.00  0.00    +0.000 NA
ATOM     27  C   UNL     1      -1.727  10.230  17.171  0.00  0.00    +0.000 A 
ATOM     28  C   UNL     1      -1.526  10.979  18.329  0.00  0.00    +0.000 A 
BRANCH  22  29
ATOM     29  C   UNL     1      -3.097  12.990  20.950  0.00  0.00    +0.000 C 
ATOM     30  C   UNL     1      -2.981  12.514  22.398  0.00  0.00    +0.000 C 
ATOM     31  C   UNL     1      -2.878  14.500  20.847  0.00  0.00    +0.000 C 
ENDBRANCH  22  29
ENDBRANCH  18  20
ENDBRANCH   5  18
TORSDOF 5
ENDMDL
