MODEL 1
REMARK VINA RESULT:      -8.5      0.000      0.000
REMARK  Name = 
REMARK  5 active torsions:
REMARK  status: ('A' for Active; 'I' for Inactive)
REMARK    1  A    between atoms: C_2  and  C_3
REMARK    2  A    between atoms: C_3  and  N_4
REMARK    3  A    between atoms: N_7  and  C_8
REMARK    4  A    between atoms: C_8  and  C_9
REMARK    5  A    between atoms: N_17  and  C_18
REMARK                            x       y       z     vdW  Elec       q    Type
REMARK                         _______ _______ _______ _____ _____    ______ ____
ROOT
ATOM      1  C   UNL     1       7.923   7.019  18.262  0.00  0.00    +0.000 C 
ENDROOT
BRANCH   1   2
ATOM      2  N   UNL     1       6.709   6.831  17.436  0.00  0.00    +0.000 NA
ATOM      3  C   UNL     1       6.920   5.936  16.283  0.00  0.00    +0.000 C 
ATOM      4  C   UNL     1       6.957   4.453  16.713  0.00  0.00    +0.000 C 
ATOM      5  N   UNL     1       5.742   4.069  17.472  0.00  0.00    +0.000 NA
ATOM      6  C   UNL     1       5.580   4.958  18.638  0.00  0.00    +0.000 C 
ATOM      7  C   UNL     1       5.509   6.433  18.210  0.00  0.00    +0.000 C 
BRANCH   5   8
ATOM      8  C   UNL     1       4.507   4.031  16.656  0.00  0.00    +0.000 C 
BRANCH   8   9
ATOM      9  C   UNL     1       3.328   3.488  17.426  0.00  0.00    +0.000 A 
ATOM     10  C   UNL     1       2.185   4.266  17.623  0.00  0.00    +0.000 A 
ATOM     11  C   UNL     1       1.104   3.752  18.341  0.00  0.00    +0.000 A 
ATOM     12  C   UNL     1       1.172   2.462  18.877  0.00  0.00    +0.000 A 
ATOM     13  C   UNL     1       2.315   1.686  18.693  0.00  0.00    +0.000 A 
ATOM     14  C   UNL     1       3.397   2.194  17.970  0.00  0.00    +0.000 A 
ENDBRANCH   8   9
ENDBRANCH   5   8
ENDBRANCH   1   2
BRANCH   1  16
ATOM     15  O   UNL     1       7.614   9.219  17.560  0.00  0.00    +0.000 OA
ATOM     16  C   UNL     1       8.239   8.482  18.310  0.00  0.00    +0.000 C 
ATOM     17  N   UNL     1       9.180   8.991  19.162  0.00  0.00    +0.000 N 
ATOM     18  H   UNL     1       9.816   8.349  19.659  0.00  0.00    +0.000 HD
BRANCH  17  19
ATOM     19  C   UNL     1       9.402  10.394  19.206  0.00  0.00    +0.000 A 
ATOM     20  C   UNL     1       9.288  11.075  20.433  0.00  0.00    +0.000 A 
ATOM     21  C   UNL     1       9.763  12.391  20.546  0.00  0.00    +0.000 A 
ATOM     22  C   UNL     1      10.268  13.014  19.407  0.00  0.00    +0.000 A 
ATOM     23  C   UNL     1      10.226  12.411  18.171  0.00  0.00    +0.000 A 
ATOM     24  C   UNL     1       9.835  11.083  18.046  0.00  0.00    +0.000 A 
ATOM     25  C   UNL     1      10.797  13.353  17.165  0.00  0.00    +0.000 C 
ATOM     26  C   UNL     1      11.903  13.913  18.039  0.00  0.00    +0.000 C 
ATOM     27  C   UNL     1      11.104  14.248  19.322  0.00  0.00    +0.000 C 
ENDBRANCH  17  19
ENDBRANCH   1  16
TORSDOF 5
ENDMDL
MODEL 2
REMARK VINA RESULT:      -8.2      1.380      2.291
REMARK  Name = 
REMARK  5 active torsions:
REMARK  status: ('A' for Active; 'I' for Inactive)
REMARK    1  A    between atoms: C_2  and  C_3
REMARK    2  A    between atoms: C_3  and  N_4
REMARK    3  A    between atoms: N_7  and  C_8
REMARK    4  A    between atoms: C_8  and  C_9
REMARK    5  A    between atoms: N_17  and  C_18
REMARK                            x       y       z     vdW  Elec       q    Type
REMARK                         _______ _______ _______ _____ _____    ______ ____
ROOT
ATOM      1  C   UNL     1       6.865   7.317  17.222  0.00  0.00    +0.000 C 
ENDROOT
BRANCH   1   2
ATOM      2  N   UNL     1       6.770   6.009  17.907  0.00  0.00    +0.000 NA
ATOM      3  C   UNL     1       5.638   5.924  18.850  0.00  0.00    +0.000 C 
ATOM      4  C   UNL     1       4.297   5.727  18.112  0.00  0.00    +0.000 C 
ATOM      5  N   UNL     1       4.331   4.549  17.211  0.00  0.00    +0.000 NA
ATOM      6  C   UNL     1       5.449   4.682  16.258  0.00  0.00    +0.000 C 
ATOM      7  C   UNL     1       6.791   4.845  16.991  0.00  0.00    +0.000 C 
BRANCH   5   8
ATOM      8  C   UNL     1       4.386   3.249  17.919  0.00  0.00    +0.000 C 
BRANCH   8   9
ATOM      9  C   UNL     1       3.245   3.079  18.893  0.00  0.00    +0.000 A 
ATOM     10  C   UNL     1       1.924   3.042  18.443  0.00  0.00    +0.000 A 
ATOM     11  C   UNL     1       0.878   2.889  19.356  0.00  0.00    +0.000 A 
ATOM     12  C   UNL     1       1.155   2.787  20.723  0.00  0.00    +0.000 A 
ATOM     13  C   UNL     1       2.471   2.835  21.178  0.00  0.00    +0.000 A 
ATOM     14  C   UNL     1       3.521   2.983  20.268  0.00  0.00    +0.000 A 
ENDBRANCH   8   9
ENDBRANCH   5   8
ENDBRANCH   1   2
BRANCH   1  16
ATOM     15  O   UNL     1       8.610   7.594  18.740  0.00  0.00    +0.000 OA
ATOM     16  C   UNL     1       7.869   8.159  17.947  0.00  0.00    +0.000 C 
ATOM     17  N   UNL     1       7.973   9.506  17.733  0.00  0.00    +0.000 N 
ATOM     18  H   UNL     1       7.238   9.994  17.200  0.00  0.00    +0.000 HD
BRANCH  17  19
ATOM     19  C   UNL     1       8.981  10.247  18.408  0.00  0.00    +0.000 A 
ATOM     20  C   UNL     1      10.109  10.691  17.693  0.00  0.00    +0.000 A 
ATOM     21  C   UNL     1      10.967  11.642  18.266  0.00  0.00    +0.000 A 
ATOM     22  C   UNL     1      10.714  12.065  19.568  0.00  0.00    +0.000 A 
ATOM     23  C   UNL     1       9.711  11.509  20.329  0.00  0.00    +0.000 A 
ATOM     24  C   UNL     1       8.800  10.626  19.761  0.00  0.00    +0.000 A 
ATOM     25  C   UNL     1       9.734  12.143  21.679  0.00  0.00    +0.000 C 
ATOM     26  C   UNL     1      10.066  13.550  21.221  0.00  0.00    +0.000 C 
ATOM     27  C   UNL     1      11.258  13.262  20.275  0.00  0.00    +0.000 C 
ENDBRANCH  17  19
ENDBRANCH   1  16
TORSDOF 5
ENDMDL
MODEL 3
REMARK VINA RESULT:      -8.0      0.802      1.955
REMARK  Name = 
REMARK  5 active torsions:
REMARK  status: ('A' for Active; 'I' for Inactive)
REMARK    1  A    between atoms: C_2  and  C_3
REMARK    2  A    between atoms: C_3  and  N_4
REMARK    3  A    between atoms: N_7  and  C_8
REMARK    4  A    between atoms: C_8  and  C_9
REMARK    5  A    between atoms: N_17  and  C_18
REMARK                            x       y       z     vdW  Elec       q    Type
REMARK                         _______ _______ _______ _____ _____    ______ ____
ROOT
ATOM      1  C   UNL     1       7.942   7.031  18.247  0.00  0.00    +0.000 C 
ENDROOT
BRANCH   1   2
ATOM      2  N   UNL     1       6.725   6.837  17.429  0.00  0.00    +0.000 NA
ATOM      3  C   UNL     1       6.933   5.943  16.275  0.00  0.00    +0.000 C 
ATOM      4  C   UNL     1       6.979   4.460  16.705  0.00  0.00    +0.000 C 
ATOM      5  N   UNL     1       5.770   4.071  17.471  0.00  0.00    +0.000 NA
ATOM      6  C   UNL     1       5.611   4.959  18.637  0.00  0.00    +0.000 C 
ATOM      7  C   UNL     1       5.531   6.434  18.209  0.00  0.00    +0.000 C 
BRANCH   5   8
ATOM      8  C   UNL     1       4.531   4.027  16.661  0.00  0.00    +0.000 C 
BRANCH   8   9
ATOM      9  C   UNL     1       3.357   3.486  17.441  0.00  0.00    +0.000 A 
ATOM     10  C   UNL     1       3.388   2.195  17.972  0.00  0.00    +0.000 A 
ATOM     11  C   UNL     1       2.292   1.707  18.687  0.00  0.00    +0.000 A 
ATOM     12  C   UNL     1       1.158   2.507  18.858  0.00  0.00    +0.000 A 
ATOM     13  C   UNL     1       1.118   3.791  18.320  0.00  0.00    +0.000 A 
ATOM     14  C   UNL     1       2.213   4.286  17.608  0.00  0.00    +0.000 A 
ENDBRANCH   8   9
ENDBRANCH   5   8
ENDBRANCH   1   2
BRANCH   1  16
ATOM     15  O   UNL     1       7.569   9.241  17.613  0.00  0.00    +0.000 OA
ATOM     16  C   UNL     1       8.231   8.499  18.325  0.00  0.00    +0.000 C 
ATOM     17  N   UNL     1       9.187   9.004  19.162  0.00  0.00    +0.000 N 
ATOM     18  H   UNL     1       9.850   8.363  19.623  0.00  0.00    +0.000 HD
BRANCH  17  19
ATOM     19  C   UNL     1       9.382  10.410  19.235  0.00  0.00    +0.000 A 
ATOM     20  C   UNL     1       9.617  11.139  18.054  0.00  0.00    +0.000 A 
ATOM     21  C   UNL     1       9.540  12.540  18.072  0.00  0.00    +0.000 A 
ATOM     22  C   UNL     1       9.307  13.175  19.289  0.00  0.00    +0.000 A 
ATOM     23  C   UNL     1       9.244  12.476  20.473  0.00  0.00    +0.000 A 
ATOM     24  C   UNL     1       9.237  11.086  20.472  0.00  0.00    +0.000 A 
ATOM     25  C   UNL     1       9.032  13.446  21.586  0.00  0.00    +0.000 C 
ATOM     26  C   UNL     1       8.087  14.376  20.847  0.00  0.00    +0.000 C 
ATOM     27  C   UNL     1       8.873  14.584  19.529  0.00  0.00    +0.000 C 
ENDBRANCH  17  19
ENDBRANCH   1  16
TORSDOF 5
ENDMDL
MODEL 4
REMARK VINA RESULT:      -8.0      0.892      1.648
REMARK  Name = 
REMARK  5 active torsions:
REMARK  status: ('A' for Active; 'I' for Inactive)
REMARK    1  A    between atoms: C_2  and  C_3
REMARK    2  A    between atoms: C_3  and  N_4
REMARK    3  A    between atoms: N_7  and  C_8
REMARK    4  A    between atoms: C_8  and  C_9
REMARK    5  A    between atoms: N_17  and  C_18
REMARK                            x       y       z     vdW  Elec       q    Type
REMARK                         _______ _______ _______ _____ _____    ______ ____
ROOT
ATOM      1  C   UNL     1       8.019   7.207  18.384  0.00  0.00    +0.000 C 
ENDROOT
BRANCH   1   2
ATOM      2  N   UNL     1       6.882   6.942  17.474  0.00  0.00    +0.000 NA
ATOM      3  C   UNL     1       7.194   5.957  16.422  0.00  0.00    +0.000 C 
ATOM      4  C   UNL     1       7.193   4.515  16.974  0.00  0.00    +0.000 C 
ATOM      5  N   UNL     1       5.916   4.186  17.654  0.00  0.00    +0.000 NA
ATOM      6  C   UNL     1       5.653   5.167  18.724  0.00  0.00    +0.000 C 
ATOM      7  C   UNL     1       5.620   6.601  18.171  0.00  0.00    +0.000 C 
BRANCH   5   8
ATOM      8  C   UNL     1       4.758   4.072  16.739  0.00  0.00    +0.000 C 
BRANCH   8   9
ATOM      9  C   UNL     1       3.528   3.542  17.436  0.00  0.00    +0.000 A 
ATOM     10  C   UNL     1       2.379   4.327  17.550  0.00  0.00    +0.000 A 
ATOM     11  C   UNL     1       1.250   3.826  18.202  0.00  0.00    +0.000 A 
ATOM     12  C   UNL     1       1.277   2.541  18.754  0.00  0.00    +0.000 A 
ATOM     13  C   UNL     1       2.425   1.758  18.653  0.00  0.00    +0.000 A 
ATOM     14  C   UNL     1       3.554   2.254  17.997  0.00  0.00    +0.000 A 
ENDBRANCH   8   9
ENDBRANCH   5   8
ENDBRANCH   1   2
BRANCH   1  16
ATOM     15  O   UNL     1       7.632   9.374  17.621  0.00  0.00    +0.000 OA
ATOM     16  C   UNL     1       8.317   8.675  18.354  0.00  0.00    +0.000 C 
ATOM     17  N   UNL     1       9.306   9.228  19.120  0.00  0.00    +0.000 N 
ATOM     18  H   UNL     1       9.984   8.614  19.596  0.00  0.00    +0.000 HD
BRANCH  17  19
ATOM     19  C   UNL     1       9.510  10.634  19.094  0.00  0.00    +0.000 A 
ATOM     20  C   UNL     1      10.054  11.233  17.942  0.00  0.00    +0.000 A 
ATOM     21  C   UNL     1      10.009  12.628  17.795  0.00  0.00    +0.000 A 
ATOM     22  C   UNL     1       9.488  13.389  18.838  0.00  0.00    +0.000 A 
ATOM     23  C   UNL     1       9.110  12.820  20.033  0.00  0.00    +0.000 A 
ATOM     24  C   UNL     1       9.071  11.437  20.175  0.00  0.00    +0.000 A 
ATOM     25  C   UNL     1       8.645  13.902  20.948  0.00  0.00    +0.000 C 
ATOM     26  C   UNL     1       7.942  14.744  19.900  0.00  0.00    +0.000 C 
ATOM     27  C   UNL     1       9.041  14.813  18.812  0.00  0.00    +0.000 C 
ENDBRANCH  17  19
ENDBRANCH   1  16
TORSDOF 5
ENDMDL
MODEL 5
REMARK VINA RESULT:      -7.8      1.392      1.872
REMARK  Name = 
REMARK  5 active torsions:
REMARK  status: ('A' for Active; 'I' for Inactive)
REMARK    1  A    between atoms: C_2  and  C_3
REMARK    2  A    between atoms: C_3  and  N_4
REMARK    3  A    between atoms: N_7  and  C_8
REMARK    4  A    between atoms: C_8  and  C_9
REMARK    5  A    between atoms: N_17  and  C_18
REMARK                            x       y       z     vdW  Elec       q    Type
REMARK                         _______ _______ _______ _____ _____    ______ ____
ROOT
ATOM      1  C   UNL     1       7.286   6.399  17.037  0.00  0.00    +0.000 C 
ENDROOT
BRANCH   1   2
ATOM      2  N   UNL     1       5.811   6.514  17.018  0.00  0.00    +0.000 NA
ATOM      3  C   UNL     1       5.192   5.889  15.834  0.00  0.00    +0.000 C 
ATOM      4  C   UNL     1       5.151   4.351  15.958  0.00  0.00    +0.000 C 
ATOM      5  N   UNL     1       4.477   3.916  17.206  0.00  0.00    +0.000 NA
ATOM      6  C   UNL     1       5.143   4.528  18.372  0.00  0.00    +0.000 C 
ATOM      7  C   UNL     1       5.155   6.062  18.267  0.00  0.00    +0.000 C 
BRANCH   5   8
ATOM      8  C   UNL     1       3.019   4.177  17.227  0.00  0.00    +0.000 C 
BRANCH   8   9
ATOM      9  C   UNL     1       2.385   3.777  18.537  0.00  0.00    +0.000 A 
ATOM     10  C   UNL     1       2.285   2.432  18.900  0.00  0.00    +0.000 A 
ATOM     11  C   UNL     1       1.692   2.077  20.113  0.00  0.00    +0.000 A 
ATOM     12  C   UNL     1       1.185   3.069  20.958  0.00  0.00    +0.000 A 
ATOM     13  C   UNL     1       1.272   4.411  20.596  0.00  0.00    +0.000 A 
ATOM     14  C   UNL     1       1.870   4.772  19.386  0.00  0.00    +0.000 A 
ENDBRANCH   8   9
ENDBRANCH   5   8
ENDBRANCH   1   2
BRANCH   1  16
ATOM     15  O   UNL     1       8.399   7.323  18.863  0.00  0.00    +0.000 OA
ATOM     16  C   UNL     1       7.842   7.562  17.800  0.00  0.00    +0.000 C 
ATOM     17  N   UNL     1       7.748   8.844  17.334  0.00  0.00    +0.000 N 
ATOM     18  H   UNL     1       7.132   9.050  16.534  0.00  0.00    +0.000 HD
BRANCH  17  19
ATOM     19  C   UNL     1       8.342   9.903  18.073  0.00  0.00    +0.000 A 
ATOM     20  C   UNL     1       9.080   9.608  19.235  0.00  0.00    +0.000 A 
ATOM     21  C   UNL     1       9.889  10.596  19.816  0.00  0.00    +0.000 A 
ATOM     22  C   UNL     1       9.878  11.874  19.262  0.00  0.00    +0.000 A 
ATOM     23  C   UNL     1       9.031  12.209  18.230  0.00  0.00    +0.000 A 
ATOM     24  C   UNL     1       8.280  11.232  17.587  0.00  0.00    +0.000 A 
ATOM     25  C   UNL     1       9.231  13.651  17.903  0.00  0.00    +0.000 C 
ATOM     26  C   UNL     1      10.735  13.681  18.098  0.00  0.00    +0.000 C 
ATOM     27  C   UNL     1      10.853  12.984  19.476  0.00  0.00    +0.000 C 
ENDBRANCH  17  19
ENDBRANCH   1  16
TORSDOF 5
ENDMDL
MODEL 6
REMARK VINA RESULT:      -7.5      0.910      1.041
REMARK  Name = 
REMARK  5 active torsions:
REMARK  status: ('A' for Active; 'I' for Inactive)
REMARK    1  A    between atoms: C_2  and  C_3
REMARK    2  A    between atoms: C_3  and  N_4
REMARK    3  A    between atoms: N_7  and  C_8
REMARK    4  A    between atoms: C_8  and  C_9
REMARK    5  A    between atoms: N_17  and  C_18
REMARK                            x       y       z     vdW  Elec       q    Type
REMARK                         _______ _______ _______ _____ _____    ______ ____
ROOT
ATOM      1  C   UNL     1       7.838   7.360  18.378  0.00  0.00    +0.000 C 
ENDROOT
BRANCH   1   2
ATOM      2  N   UNL     1       6.826   6.894  17.405  0.00  0.00    +0.000 NA
ATOM      3  C   UNL     1       7.268   5.729  16.615  0.00  0.00    +0.000 C 
ATOM      4  C   UNL     1       7.198   4.424  17.437  0.00  0.00    +0.000 C 
ATOM      5  N   UNL     1       5.845   4.202  18.004  0.00  0.00    +0.000 NA
ATOM      6  C   UNL     1       5.448   5.367  18.818  0.00  0.00    +0.000 C 
ATOM      7  C   UNL     1       5.485   6.664  17.992  0.00  0.00    +0.000 C 
BRANCH   5   8
ATOM      8  C   UNL     1       4.812   3.882  16.993  0.00  0.00    +0.000 C 
BRANCH   8   9
ATOM      9  C   UNL     1       3.510   3.450  17.622  0.00  0.00    +0.000 A 
ATOM     10  C   UNL     1       2.371   4.255  17.530  0.00  0.00    +0.000 A 
ATOM     11  C   UNL     1       1.175   3.845  18.121  0.00  0.00    +0.000 A 
ATOM     12  C   UNL     1       1.121   2.634  18.819  0.00  0.00    +0.000 A 
ATOM     13  C   UNL     1       2.256   1.833  18.924  0.00  0.00    +0.000 A 
ATOM     14  C   UNL     1       3.454   2.237  18.329  0.00  0.00    +0.000 A 
ENDBRANCH   8   9
ENDBRANCH   5   8
ENDBRANCH   1   2
BRANCH   1  16
ATOM     15  O   UNL     1       7.883   9.167  16.908  0.00  0.00    +0.000 OA
ATOM     16  C   UNL     1       8.268   8.741  17.989  0.00  0.00    +0.000 C 
ATOM     17  N   UNL     1       9.052   9.512  18.803  0.00  0.00    +0.000 N 
ATOM     18  H   UNL     1       9.509   9.083  19.622  0.00  0.00    +0.000 HD
BRANCH  17  19
ATOM     19  C   UNL     1       9.385  10.835  18.407  0.00  0.00    +0.000 A 
ATOM     20  C   UNL     1       8.356  11.774  18.197  0.00  0.00    +0.000 A 
ATOM     21  C   UNL     1       8.671  13.136  18.075  0.00  0.00    +0.000 A 
ATOM     22  C   UNL     1      10.012  13.511  18.091  0.00  0.00    +0.000 A 
ATOM     23  C   UNL     1      11.025  12.581  18.129  0.00  0.00    +0.000 A 
ATOM     24  C   UNL     1      10.741  11.235  18.329  0.00  0.00    +0.000 A 
ATOM     25  C   UNL     1      12.332  13.301  18.088  0.00  0.00    +0.000 C 
ATOM     26  C   UNL     1      11.928  14.471  18.965  0.00  0.00    +0.000 C 
ATOM     27  C   UNL     1      10.590  14.873  18.298  0.00  0.00    +0.000 C 
ENDBRANCH  17  19
ENDBRANCH   1  16
TORSDOF 5
ENDMDL
MODEL 7
REMARK VINA RESULT:      -7.4      6.925      9.721
REMARK  Name = 
REMARK  5 active torsions:
REMARK  status: ('A' for Active; 'I' for Inactive)
REMARK    1  A    between atoms: C_2  and  C_3
REMARK    2  A    between atoms: C_3  and  N_4
REMARK    3  A    between atoms: N_7  and  C_8
REMARK    4  A    between atoms: C_8  and  C_9
REMARK    5  A    between atoms: N_17  and  C_18
REMARK                            x       y       z     vdW  Elec       q    Type
REMARK                         _______ _______ _______ _____ _____    ______ ____
ROOT
ATOM      1  C   UNL     1       1.277   7.290  20.962  0.00  0.00    +0.000 C 
ENDROOT
BRANCH   1   2
ATOM      2  N   UNL     1       1.566   8.736  21.080  0.00  0.00    +0.000 NA
ATOM      3  C   UNL     1       0.818   9.562  20.114  0.00  0.00    +0.000 C 
ATOM      4  C   UNL     1      -0.656   9.740  20.538  0.00  0.00    +0.000 C 
ATOM      5  N   UNL     1      -0.772  10.287  21.912  0.00  0.00    +0.000 NA
ATOM      6  C   UNL     1      -0.046   9.419  22.858  0.00  0.00    +0.000 C 
ATOM      7  C   UNL     1       1.431   9.268  22.457  0.00  0.00    +0.000 C 
BRANCH   5   8
ATOM      8  C   UNL     1      -0.335  11.697  22.039  0.00  0.00    +0.000 C 
BRANCH   8   9
ATOM      9  C   UNL     1      -1.311  12.529  22.835  0.00  0.00    +0.000 A 
ATOM     10  C   UNL     1      -2.577  12.033  23.154  0.00  0.00    +0.000 A 
ATOM     11  C   UNL     1      -3.471  12.815  23.887  0.00  0.00    +0.000 A 
ATOM     12  C   UNL     1      -3.102  14.103  24.290  0.00  0.00    +0.000 A 
ATOM     13  C   UNL     1      -1.844  14.607  23.965  0.00  0.00    +0.000 A 
ATOM     14  C   UNL     1      -0.945  13.825  23.236  0.00  0.00    +0.000 A 
ENDBRANCH   8   9
ENDBRANCH   5   8
ENDBRANCH   1   2
BRANCH   1  16
ATOM     15  O   UNL     1       2.441   7.345  18.945  0.00  0.00    +0.000 OA
ATOM     16  C   UNL     1       2.220   6.699  19.960  0.00  0.00    +0.000 C 
ATOM     17  N   UNL     1       2.826   5.490  20.162  0.00  0.00    +0.000 N 
ATOM     18  H   UNL     1       2.502   4.881  20.929  0.00  0.00    +0.000 HD
BRANCH  17  19
ATOM     19  C   UNL     1       3.754   5.001  19.203  0.00  0.00    +0.000 A 
ATOM     20  C   UNL     1       3.284   4.278  18.091  0.00  0.00    +0.000 A 
ATOM     21  C   UNL     1       4.142   4.028  17.009  0.00  0.00    +0.000 A 
ATOM     22  C   UNL     1       5.468   4.443  17.105  0.00  0.00    +0.000 A 
ATOM     23  C   UNL     1       5.973   5.000  18.257  0.00  0.00    +0.000 A 
ATOM     24  C   UNL     1       5.128   5.330  19.310  0.00  0.00    +0.000 A 
ATOM     25  C   UNL     1       7.422   5.288  18.050  0.00  0.00    +0.000 C 
ATOM     26  C   UNL     1       7.319   5.739  16.605  0.00  0.00    +0.000 C 
ATOM     27  C   UNL     1       6.474   4.586  16.010  0.00  0.00    +0.000 C 
ENDBRANCH  17  19
ENDBRANCH   1  16
TORSDOF 5
ENDMDL
MODEL 8
REMARK VINA RESULT:      -7.3      5.643      7.807
REMARK  Name = 
REMARK  5 active torsions:
REMARK  status: ('A' for Active; 'I' for Inactive)
REMARK    1  A    between atoms: C_2  and  C_3
REMARK    2  A    between atoms: C_3  and  N_4
REMARK    3  A    between atoms: N_7  and  C_8
REMARK    4  A    between atoms: C_8  and  C_9
REMARK    5  A    between atoms: N_17  and  C_18
REMARK                            x       y       z     vdW  Elec       q    Type
REMARK                         _______ _______ _______ _____ _____    ______ ____
ROOT
ATOM      1  C   UNL     1       3.325   5.214  19.740  0.00  0.00    +0.000 C 
ENDROOT
BRANCH   1   2
ATOM      2  N   UNL     1       4.302   5.985  18.940  0.00  0.00    +0.000 NA
ATOM      3  C   UNL     1       5.689   5.507  19.094  0.00  0.00    +0.000 C 
ATOM      4  C   UNL     1       5.936   4.210  18.293  0.00  0.00    +0.000 C 
ATOM      5  N   UNL     1       5.581   4.370  16.861  0.00  0.00    +0.000 NA
ATOM      6  C   UNL     1       4.178   4.812  16.741  0.00  0.00    +0.000 C 
ATOM      7  C   UNL     1       3.938   6.122  17.511  0.00  0.00    +0.000 C 
BRANCH   5   8
ATOM      8  C   UNL     1       6.488   5.268  16.111  0.00  0.00    +0.000 C 
BRANCH   8   9
ATOM      9  C   UNL     1       6.663   4.835  14.676  0.00  0.00    +0.000 A 
ATOM     10  C   UNL     1       7.615   5.447  13.857  0.00  0.00    +0.000 A 
ATOM     11  C   UNL     1       7.763   5.040  12.530  0.00  0.00    +0.000 A 
ATOM     12  C   UNL     1       6.946   4.028  12.016  0.00  0.00    +0.000 A 
ATOM     13  C   UNL     1       5.987   3.422  12.825  0.00  0.00    +0.000 A 
ATOM     14  C   UNL     1       5.840   3.823  14.156  0.00  0.00    +0.000 A 
ENDBRANCH   8   9
ENDBRANCH   5   8
ENDBRANCH   1   2
BRANCH   1  16
ATOM     15  O   UNL     1       1.226   5.651  20.650  0.00  0.00    +0.000 OA
ATOM     16  C   UNL     1       2.252   6.148  20.207  0.00  0.00    +0.000 C 
ATOM     17  N   UNL     1       2.403   7.506  20.156  0.00  0.00    +0.000 N 
ATOM     18  H   UNL     1       3.190   7.911  19.626  0.00  0.00    +0.000 HD
BRANCH  17  19
ATOM     19  C   UNL     1       1.375   8.346  20.663  0.00  0.00    +0.000 A 
ATOM     20  C   UNL     1       1.180   8.437  22.055  0.00  0.00    +0.000 A 
ATOM     21  C   UNL     1       0.365   9.453  22.578  0.00  0.00    +0.000 A 
ATOM     22  C   UNL     1      -0.293  10.300  21.690  0.00  0.00    +0.000 A 
ATOM     23  C   UNL     1      -0.237  10.109  20.329  0.00  0.00    +0.000 A 
ATOM     24  C   UNL     1       0.624   9.163  19.783  0.00  0.00    +0.000 A 
ATOM     25  C   UNL     1      -1.079  11.149  19.669  0.00  0.00    +0.000 C 
ATOM     26  C   UNL     1      -0.724  12.294  20.598  0.00  0.00    +0.000 C 
ATOM     27  C   UNL     1      -0.939  11.616  21.973  0.00  0.00    +0.000 C 
ENDBRANCH  17  19
ENDBRANCH   1  16
TORSDOF 5
ENDMDL
MODEL 9
REMARK VINA RESULT:      -7.3      7.284     10.259
REMARK  Name = 
REMARK  5 active torsions:
REMARK  status: ('A' for Active; 'I' for Inactive)
REMARK    1  A    between atoms: C_2  and  C_3
REMARK    2  A    between atoms: C_3  and  N_4
REMARK    3  A    between atoms: N_7  and  C_8
REMARK    4  A    between atoms: C_8  and  C_9
REMARK    5  A    between atoms: N_17  and  C_18
REMARK                            x       y       z     vdW  Elec       q    Type
REMARK                         _______ _______ _______ _____ _____    ______ ____
ROOT
ATOM      1  C   UNL     1       1.688   8.133  21.369  0.00  0.00    +0.000 C 
ENDROOT
BRANCH   1   2
ATOM      2  N   UNL     1       0.417   8.752  20.930  0.00  0.00    +0.000 NA
ATOM      3  C   UNL     1      -0.611   8.786  21.987  0.00  0.00    +0.000 C 
ATOM      4  C   UNL     1      -0.330   9.900  23.018  0.00  0.00    +0.000 C 
ATOM      5  N   UNL     1      -0.185  11.227  22.371  0.00  0.00    +0.000 NA
ATOM      6  C   UNL     1       0.875  11.169  21.346  0.00  0.00    +0.000 C 
ATOM      7  C   UNL     1       0.581  10.083  20.299  0.00  0.00    +0.000 C 
BRANCH   5   8
ATOM      8  C   UNL     1      -1.445  11.763  21.804  0.00  0.00    +0.000 C 
BRANCH   8   9
ATOM      9  C   UNL     1      -2.151  12.694  22.760  0.00  0.00    +0.000 A 
ATOM     10  C   UNL     1      -1.461  13.736  23.382  0.00  0.00    +0.000 A 
ATOM     11  C   UNL     1      -2.126  14.586  24.267  0.00  0.00    +0.000 A 
ATOM     12  C   UNL     1      -3.482  14.384  24.542  0.00  0.00    +0.000 A 
ATOM     13  C   UNL     1      -4.173  13.338  23.933  0.00  0.00    +0.000 A 
ATOM     14  C   UNL     1      -3.513  12.489  23.042  0.00  0.00    +0.000 A 
ENDBRANCH   8   9
ENDBRANCH   5   8
ENDBRANCH   1   2
BRANCH   1  16
ATOM     15  O   UNL     1       2.180   7.750  19.124  0.00  0.00    +0.000 OA
ATOM     16  C   UNL     1       2.209   7.280  20.254  0.00  0.00    +0.000 C 
ATOM     17  N   UNL     1       2.710   6.027  20.475  0.00  0.00    +0.000 N 
ATOM     18  H   UNL     1       2.571   5.579  21.393  0.00  0.00    +0.000 HD
BRANCH  17  19
ATOM     19  C   UNL     1       3.242   5.283  19.387  0.00  0.00    +0.000 A 
ATOM     20  C   UNL     1       2.365   4.616  18.511  0.00  0.00    +0.000 A 
ATOM     21  C   UNL     1       2.847   4.111  17.294  0.00  0.00    +0.000 A 
ATOM     22  C   UNL     1       4.208   4.220  17.023  0.00  0.00    +0.000 A 
ATOM     23  C   UNL     1       5.094   4.721  17.949  0.00  0.00    +0.000 A 
ATOM     24  C   UNL     1       4.634   5.299  19.126  0.00  0.00    +0.000 A 
ATOM     25  C   UNL     1       6.469   4.660  17.371  0.00  0.00    +0.000 C 
ATOM     26  C   UNL     1       6.091   5.032  15.950  0.00  0.00    +0.000 C 
ATOM     27  C   UNL     1       4.906   4.064  15.712  0.00  0.00    +0.000 C 
ENDBRANCH  17  19
ENDBRANCH   1  16
TORSDOF 5
ENDMDL
