MODEL 1
REMARK VINA RESULT:      -7.3      0.000      0.000
REMARK  Name = 
REMARK  7 active torsions:
REMARK  status: ('A' for Active; 'I' for Inactive)
REMARK    1  A    between atoms: C_2  and  O_3
REMARK    2  A    between atoms: C_2  and  C_4
REMARK    3  A    between atoms: C_6  and  N_7
REMARK    4  A    between atoms: C_8  and  C_9
REMARK    5  A    between atoms: C_11  and  O_12
REMARK    6  A    between atoms: C_15  and  O_16
REMARK    7  A    between atoms: C_19  and  O_20
REMARK                            x       y       z     vdW  Elec       q    Type
REMARK                         _______ _______ _______ _____ _____    ______ ____
ROOT
ATOM      1  C   UNL     1       6.254   4.096  13.855  0.00  0.00    +0.000 A 
ATOM      2  C   UNL     1       5.323   3.623  14.792  0.00  0.00    +0.000 A 
ATOM      3  C   UNL     1       5.351   4.054  16.122  0.00  0.00    +0.000 A 
ATOM      4  C   UNL     1       6.364   4.937  16.518  0.00  0.00    +0.000 A 
ATOM      5  C   UNL     1       7.296   5.425  15.595  0.00  0.00    +0.000 A 
ATOM      6  C   UNL     1       7.232   5.010  14.268  0.00  0.00    +0.000 A 
ENDROOT
BRANCH   1   8
ATOM      7  O   UNL     1       7.148   3.249  11.816  0.00  0.00    +0.000 OA
ATOM      8  C   UNL     1       6.164   3.569  12.466  0.00  0.00    +0.000 C 
BRANCH   8   9
ATOM      9  O   UNL     1       4.905   3.419  12.003  0.00  0.00    +0.000 OA
ATOM     10  H   UNL     1       4.846   3.573  11.034  0.00  0.00    +0.000 HD
ENDBRANCH   8   9
ENDBRANCH   1   8
BRANCH   3  11
ATOM     11  N   UNL     1       4.388   3.531  17.004  0.00  0.00    +0.000 NA
ATOM     12  C   UNL     1       3.915   4.284  17.949  0.00  0.00    +0.000 C 
BRANCH  12  13
ATOM     13  C   UNL     1       2.887   3.803  18.896  0.00  0.00    +0.000 A 
ATOM     14  C   UNL     1       3.245   3.444  20.199  0.00  0.00    +0.000 A 
ATOM     15  C   UNL     1       2.265   2.969  21.068  0.00  0.00    +0.000 A 
ATOM     16  C   UNL     1       0.939   2.859  20.661  0.00  0.00    +0.000 A 
ATOM     17  C   UNL     1       0.577   3.225  19.365  0.00  0.00    +0.000 A 
ATOM     18  C   UNL     1       1.551   3.696  18.483  0.00  0.00    +0.000 A 
BRANCH  15  19
ATOM     19  O   UNL     1       2.564   2.596  22.343  0.00  0.00    +0.000 OA
ATOM     20  H   UNL     1       3.514   2.392  22.394  0.00  0.00    +0.000 HD
ENDBRANCH  15  19
BRANCH  18  21
ATOM     21  O   UNL     1       1.195   4.055  17.212  0.00  0.00    +0.000 OA
ATOM     22  H   UNL     1       2.001   4.276  16.713  0.00  0.00    +0.000 HD
ENDBRANCH  18  21
ENDBRANCH  12  13
ENDBRANCH   3  11
BRANCH   6  23
ATOM     23  O   UNL     1       8.132   5.508  13.363  0.00  0.00    +0.000 OA
ATOM     24  H   UNL     1       8.982   5.042  13.482  0.00  0.00    +0.000 HD
ENDBRANCH   6  23
TORSDOF 7
ENDMDL
MODEL 2
REMARK VINA RESULT:      -7.3      1.875      7.466
REMARK  Name = 
REMARK  7 active torsions:
REMARK  status: ('A' for Active; 'I' for Inactive)
REMARK    1  A    between atoms: C_2  and  O_3
REMARK    2  A    between atoms: C_2  and  C_4
REMARK    3  A    between atoms: C_6  and  N_7
REMARK    4  A    between atoms: C_8  and  C_9
REMARK    5  A    between atoms: C_11  and  O_12
REMARK    6  A    between atoms: C_15  and  O_16
REMARK    7  A    between atoms: C_19  and  O_20
REMARK                            x       y       z     vdW  Elec       q    Type
REMARK                         _______ _______ _______ _____ _____    ______ ____
ROOT
ATOM      1  C   UNL     1       3.696   4.084  19.605  0.00  0.00    +0.000 A 
ATOM      2  C   UNL     1       4.280   4.178  18.333  0.00  0.00    +0.000 A 
ATOM      3  C   UNL     1       4.160   5.340  17.564  0.00  0.00    +0.000 A 
ATOM      4  C   UNL     1       3.398   6.401  18.071  0.00  0.00    +0.000 A 
ATOM      5  C   UNL     1       2.815   6.328  19.340  0.00  0.00    +0.000 A 
ATOM      6  C   UNL     1       2.973   5.175  20.105  0.00  0.00    +0.000 A 
ENDROOT
BRANCH   1   8
ATOM      7  O   UNL     1       3.059   2.425  21.190  0.00  0.00    +0.000 OA
ATOM      8  C   UNL     1       3.856   2.804  20.346  0.00  0.00    +0.000 C 
BRANCH   8   9
ATOM      9  O   UNL     1       4.922   2.066  19.968  0.00  0.00    +0.000 OA
ATOM     10  H   UNL     1       5.708   2.236  20.532  0.00  0.00    +0.000 HD
ENDBRANCH   8   9
ENDBRANCH   1   8
BRANCH   3  11
ATOM     11  N   UNL     1       4.769   5.357  16.297  0.00  0.00    +0.000 NA
ATOM     12  C   UNL     1       5.282   4.265  15.822  0.00  0.00    +0.000 C 
BRANCH  12  13
ATOM     13  C   UNL     1       5.918   4.211  14.487  0.00  0.00    +0.000 A 
ATOM     14  C   UNL     1       5.387   3.387  13.490  0.00  0.00    +0.000 A 
ATOM     15  C   UNL     1       6.016   3.332  12.248  0.00  0.00    +0.000 A 
ATOM     16  C   UNL     1       7.153   4.090  11.986  0.00  0.00    +0.000 A 
ATOM     17  C   UNL     1       7.678   4.920  12.976  0.00  0.00    +0.000 A 
ATOM     18  C   UNL     1       7.061   4.980  14.226  0.00  0.00    +0.000 A 
BRANCH  15  19
ATOM     19  O   UNL     1       5.547   2.537  11.246  0.00  0.00    +0.000 OA
ATOM     20  H   UNL     1       4.611   2.336  11.421  0.00  0.00    +0.000 HD
ENDBRANCH  15  19
BRANCH  18  21
ATOM     21  O   UNL     1       7.577   5.794  15.197  0.00  0.00    +0.000 OA
ATOM     22  H   UNL     1       8.520   5.944  15.009  0.00  0.00    +0.000 HD
ENDBRANCH  18  21
ENDBRANCH  12  13
ENDBRANCH   3  11
BRANCH   6  23
ATOM     23  O   UNL     1       2.420   5.116  21.357  0.00  0.00    +0.000 OA
ATOM     24  H   UNL     1       1.486   4.843  21.271  0.00  0.00    +0.000 HD
ENDBRANCH   6  23
TORSDOF 7
ENDMDL
MODEL 3
REMARK VINA RESULT:      -7.1      1.400      1.915
REMARK  Name = 
REMARK  7 active torsions:
REMARK  status: ('A' for Active; 'I' for Inactive)
REMARK    1  A    between atoms: C_2  and  O_3
REMARK    2  A    between atoms: C_2  and  C_4
REMARK    3  A    between atoms: C_6  and  N_7
REMARK    4  A    between atoms: C_8  and  C_9
REMARK    5  A    between atoms: C_11  and  O_12
REMARK    6  A    between atoms: C_15  and  O_16
REMARK    7  A    between atoms: C_19  and  O_20
REMARK                            x       y       z     vdW  Elec       q    Type
REMARK                         _______ _______ _______ _____ _____    ______ ____
ROOT
ATOM      1  C   UNL     1       6.081   3.951  13.628  0.00  0.00    +0.000 A 
ATOM      2  C   UNL     1       5.345   3.696  14.796  0.00  0.00    +0.000 A 
ATOM      3  C   UNL     1       5.680   4.303  16.010  0.00  0.00    +0.000 A 
ATOM      4  C   UNL     1       6.805   5.139  16.052  0.00  0.00    +0.000 A 
ATOM      5  C   UNL     1       7.545   5.410  14.897  0.00  0.00    +0.000 A 
ATOM      6  C   UNL     1       7.176   4.823  13.689  0.00  0.00    +0.000 A 
ENDROOT
BRANCH   1   8
ATOM      7  O   UNL     1       4.580   3.421  11.857  0.00  0.00    +0.000 OA
ATOM      8  C   UNL     1       5.668   3.247  12.384  0.00  0.00    +0.000 C 
BRANCH   8   9
ATOM      9  O   UNL     1       6.614   2.444  11.851  0.00  0.00    +0.000 OA
ATOM     10  H   UNL     1       6.338   1.501  11.844  0.00  0.00    +0.000 HD
ENDBRANCH   8   9
ENDBRANCH   1   8
BRANCH   3  11
ATOM     11  N   UNL     1       4.899   3.995  17.138  0.00  0.00    +0.000 NA
ATOM     12  C   UNL     1       3.761   4.593  17.306  0.00  0.00    +0.000 C 
BRANCH  12  13
ATOM     13  C   UNL     1       2.882   4.300  18.459  0.00  0.00    +0.000 A 
ATOM     14  C   UNL     1       1.808   3.416  18.317  0.00  0.00    +0.000 A 
ATOM     15  C   UNL     1       0.978   3.174  19.409  0.00  0.00    +0.000 A 
ATOM     16  C   UNL     1       1.210   3.788  20.636  0.00  0.00    +0.000 A 
ATOM     17  C   UNL     1       2.287   4.661  20.783  0.00  0.00    +0.000 A 
ATOM     18  C   UNL     1       3.122   4.917  19.695  0.00  0.00    +0.000 A 
BRANCH  15  19
ATOM     19  O   UNL     1      -0.089   2.331  19.319  0.00  0.00    +0.000 OA
ATOM     20  H   UNL     1       0.130   1.617  18.696  0.00  0.00    +0.000 HD
ENDBRANCH  15  19
BRANCH  18  21
ATOM     21  O   UNL     1       4.177   5.775  19.841  0.00  0.00    +0.000 OA
ATOM     22  H   UNL     1       4.413   6.131  18.967  0.00  0.00    +0.000 HD
ENDBRANCH  18  21
ENDBRANCH  12  13
ENDBRANCH   3  11
BRANCH   6  23
ATOM     23  O   UNL     1       7.890   5.109  12.555  0.00  0.00    +0.000 OA
ATOM     24  H   UNL     1       8.587   5.754  12.782  0.00  0.00    +0.000 HD
ENDBRANCH   6  23
TORSDOF 7
ENDMDL
MODEL 4
REMARK VINA RESULT:      -7.1      1.386      2.098
REMARK  Name = 
REMARK  7 active torsions:
REMARK  status: ('A' for Active; 'I' for Inactive)
REMARK    1  A    between atoms: C_2  and  O_3
REMARK    2  A    between atoms: C_2  and  C_4
REMARK    3  A    between atoms: C_6  and  N_7
REMARK    4  A    between atoms: C_8  and  C_9
REMARK    5  A    between atoms: C_11  and  O_12
REMARK    6  A    between atoms: C_15  and  O_16
REMARK    7  A    between atoms: C_19  and  O_20
REMARK                            x       y       z     vdW  Elec       q    Type
REMARK                         _______ _______ _______ _____ _____    ______ ____
ROOT
ATOM      1  C   UNL     1       5.925   3.902  13.491  0.00  0.00    +0.000 A 
ATOM      2  C   UNL     1       5.260   3.770  14.720  0.00  0.00    +0.000 A 
ATOM      3  C   UNL     1       5.721   4.423  15.867  0.00  0.00    +0.000 A 
ATOM      4  C   UNL     1       6.898   5.179  15.778  0.00  0.00    +0.000 A 
ATOM      5  C   UNL     1       7.569   5.327  14.560  0.00  0.00    +0.000 A 
ATOM      6  C   UNL     1       7.076   4.696  13.421  0.00  0.00    +0.000 A 
ENDROOT
BRANCH   1   8
ATOM      7  O   UNL     1       4.316   3.445  11.795  0.00  0.00    +0.000 OA
ATOM      8  C   UNL     1       5.377   3.155  12.326  0.00  0.00    +0.000 C 
BRANCH   8   9
ATOM      9  O   UNL     1       6.175   2.168  11.865  0.00  0.00    +0.000 OA
ATOM     10  H   UNL     1       6.364   1.494  12.554  0.00  0.00    +0.000 HD
ENDBRANCH   8   9
ENDBRANCH   1   8
BRANCH   3  11
ATOM     11  N   UNL     1       5.004   4.240  17.063  0.00  0.00    +0.000 NA
ATOM     12  C   UNL     1       4.081   3.331  17.118  0.00  0.00    +0.000 C 
BRANCH  12  13
ATOM     13  C   UNL     1       3.306   3.073  18.351  0.00  0.00    +0.000 A 
ATOM     14  C   UNL     1       1.908   3.046  18.308  0.00  0.00    +0.000 A 
ATOM     15  C   UNL     1       1.196   2.827  19.486  0.00  0.00    +0.000 A 
ATOM     16  C   UNL     1       1.855   2.624  20.695  0.00  0.00    +0.000 A 
ATOM     17  C   UNL     1       3.249   2.640  20.738  0.00  0.00    +0.000 A 
ATOM     18  C   UNL     1       3.973   2.865  19.566  0.00  0.00    +0.000 A 
BRANCH  15  19
ATOM     19  O   UNL     1      -0.166   2.803  19.501  0.00  0.00    +0.000 OA
ATOM     20  H   UNL     1      -0.458   2.113  20.120  0.00  0.00    +0.000 HD
ENDBRANCH  15  19
BRANCH  18  21
ATOM     21  O   UNL     1       5.341   2.882  19.610  0.00  0.00    +0.000 OA
ATOM     22  H   UNL     1       5.675   2.055  19.221  0.00  0.00    +0.000 HD
ENDBRANCH  18  21
ENDBRANCH  12  13
ENDBRANCH   3  11
BRANCH   6  23
ATOM     23  O   UNL     1       7.724   4.862  12.225  0.00  0.00    +0.000 OA
ATOM     24  H   UNL     1       8.320   5.633  12.299  0.00  0.00    +0.000 HD
ENDBRANCH   6  23
TORSDOF 7
ENDMDL
MODEL 5
REMARK VINA RESULT:      -7.0      4.592      5.667
REMARK  Name = 
REMARK  7 active torsions:
REMARK  status: ('A' for Active; 'I' for Inactive)
REMARK    1  A    between atoms: C_2  and  O_3
REMARK    2  A    between atoms: C_2  and  C_4
REMARK    3  A    between atoms: C_6  and  N_7
REMARK    4  A    between atoms: C_8  and  C_9
REMARK    5  A    between atoms: C_11  and  O_12
REMARK    6  A    between atoms: C_15  and  O_16
REMARK    7  A    between atoms: C_19  and  O_20
REMARK                            x       y       z     vdW  Elec       q    Type
REMARK                         _______ _______ _______ _____ _____    ______ ____
ROOT
ATOM      1  C   UNL     1       5.444   5.517  16.874  0.00  0.00    +0.000 A 
ATOM      2  C   UNL     1       4.449   6.312  17.464  0.00  0.00    +0.000 A 
ATOM      3  C   UNL     1       3.235   5.760  17.886  0.00  0.00    +0.000 A 
ATOM      4  C   UNL     1       3.009   4.395  17.662  0.00  0.00    +0.000 A 
ATOM      5  C   UNL     1       3.991   3.586  17.082  0.00  0.00    +0.000 A 
ATOM      6  C   UNL     1       5.206   4.148  16.699  0.00  0.00    +0.000 A 
ENDROOT
BRANCH   1   8
ATOM      7  O   UNL     1       7.462   5.697  15.623  0.00  0.00    +0.000 OA
ATOM      8  C   UNL     1       6.696   6.191  16.436  0.00  0.00    +0.000 C 
BRANCH   8   9
ATOM      9  O   UNL     1       6.889   7.418  16.966  0.00  0.00    +0.000 OA
ATOM     10  H   UNL     1       6.074   7.966  16.936  0.00  0.00    +0.000 HD
ENDBRANCH   8   9
ENDBRANCH   1   8
BRANCH   3  11
ATOM     11  N   UNL     1       2.286   6.620  18.464  0.00  0.00    +0.000 NA
ATOM     12  C   UNL     1       2.478   7.902  18.421  0.00  0.00    +0.000 C 
BRANCH  12  13
ATOM     13  C   UNL     1       1.508   8.862  18.991  0.00  0.00    +0.000 A 
ATOM     14  C   UNL     1       0.882   9.802  18.166  0.00  0.00    +0.000 A 
ATOM     15  C   UNL     1      -0.009  10.713  18.728  0.00  0.00    +0.000 A 
ATOM     16  C   UNL     1      -0.292  10.692  20.091  0.00  0.00    +0.000 A 
ATOM     17  C   UNL     1       0.323   9.749  20.914  0.00  0.00    +0.000 A 
ATOM     18  C   UNL     1       1.223   8.835  20.364  0.00  0.00    +0.000 A 
BRANCH  15  19
ATOM     19  O   UNL     1      -0.636  11.656  17.971  0.00  0.00    +0.000 OA
ATOM     20  H   UNL     1       0.035  12.146  17.466  0.00  0.00    +0.000 HD
ENDBRANCH  15  19
BRANCH  18  21
ATOM     21  O   UNL     1       1.826   7.911  21.172  0.00  0.00    +0.000 OA
ATOM     22  H   UNL     1       2.497   7.433  20.654  0.00  0.00    +0.000 HD
ENDBRANCH  18  21
ENDBRANCH  12  13
ENDBRANCH   3  11
BRANCH   6  23
ATOM     23  O   UNL     1       6.175   3.348  16.152  0.00  0.00    +0.000 OA
ATOM     24  H   UNL     1       6.716   2.977  16.876  0.00  0.00    +0.000 HD
ENDBRANCH   6  23
TORSDOF 7
ENDMDL
MODEL 6
REMARK VINA RESULT:      -7.0      6.241      8.854
REMARK  Name = 
REMARK  7 active torsions:
REMARK  status: ('A' for Active; 'I' for Inactive)
REMARK    1  A    between atoms: C_2  and  O_3
REMARK    2  A    between atoms: C_2  and  C_4
REMARK    3  A    between atoms: C_6  and  N_7
REMARK    4  A    between atoms: C_8  and  C_9
REMARK    5  A    between atoms: C_11  and  O_12
REMARK    6  A    between atoms: C_15  and  O_16
REMARK    7  A    between atoms: C_19  and  O_20
REMARK                            x       y       z     vdW  Elec       q    Type
REMARK                         _______ _______ _______ _____ _____    ______ ____
ROOT
ATOM      1  C   UNL     1       6.497   6.091  17.044  0.00  0.00    +0.000 A 
ATOM      2  C   UNL     1       7.015   7.395  17.060  0.00  0.00    +0.000 A 
ATOM      3  C   UNL     1       7.923   7.803  18.042  0.00  0.00    +0.000 A 
ATOM      4  C   UNL     1       8.271   6.892  19.049  0.00  0.00    +0.000 A 
ATOM      5  C   UNL     1       7.770   5.586  19.045  0.00  0.00    +0.000 A 
ATOM      6  C   UNL     1       6.893   5.189  18.039  0.00  0.00    +0.000 A 
ENDROOT
BRANCH   1   8
ATOM      7  O   UNL     1       5.061   4.626  15.834  0.00  0.00    +0.000 OA
ATOM      8  C   UNL     1       5.521   5.749  15.974  0.00  0.00    +0.000 C 
BRANCH   8   9
ATOM      9  O   UNL     1       5.140   6.792  15.207  0.00  0.00    +0.000 OA
ATOM     10  H   UNL     1       4.416   7.312  15.622  0.00  0.00    +0.000 HD
ENDBRANCH   8   9
ENDBRANCH   1   8
BRANCH   3  11
ATOM     11  N   UNL     1       8.395   9.126  17.995  0.00  0.00    +0.000 NA
ATOM     12  C   UNL     1       8.974   9.633  19.039  0.00  0.00    +0.000 C 
BRANCH  12  13
ATOM     13  C   UNL     1       9.511  11.011  19.048  0.00  0.00    +0.000 A 
ATOM     14  C   UNL     1       9.743  11.682  17.843  0.00  0.00    +0.000 A 
ATOM     15  C   UNL     1      10.273  12.970  17.874  0.00  0.00    +0.000 A 
ATOM     16  C   UNL     1      10.562  13.598  19.082  0.00  0.00    +0.000 A 
ATOM     17  C   UNL     1      10.321  12.935  20.285  0.00  0.00    +0.000 A 
ATOM     18  C   UNL     1       9.797  11.642  20.267  0.00  0.00    +0.000 A 
BRANCH  15  19
ATOM     19  O   UNL     1      10.529  13.662  16.729  0.00  0.00    +0.000 OA
ATOM     20  H   UNL     1      10.941  13.060  16.086  0.00  0.00    +0.000 HD
ENDBRANCH  15  19
BRANCH  18  21
ATOM     21  O   UNL     1       9.562  10.992  21.448  0.00  0.00    +0.000 OA
ATOM     22  H   UNL     1      10.230  11.272  22.097  0.00  0.00    +0.000 HD
ENDBRANCH  18  21
ENDBRANCH  12  13
ENDBRANCH   3  11
BRANCH   6  23
ATOM     23  O   UNL     1       6.423   3.902  18.026  0.00  0.00    +0.000 OA
ATOM     24  H   UNL     1       6.136   3.686  17.117  0.00  0.00    +0.000 HD
ENDBRANCH   6  23
TORSDOF 7
ENDMDL
MODEL 7
REMARK VINA RESULT:      -6.9      4.731      7.400
REMARK  Name = 
REMARK  7 active torsions:
REMARK  status: ('A' for Active; 'I' for Inactive)
REMARK    1  A    between atoms: C_2  and  O_3
REMARK    2  A    between atoms: C_2  and  C_4
REMARK    3  A    between atoms: C_6  and  N_7
REMARK    4  A    between atoms: C_8  and  C_9
REMARK    5  A    between atoms: C_11  and  O_12
REMARK    6  A    between atoms: C_15  and  O_16
REMARK    7  A    between atoms: C_19  and  O_20
REMARK                            x       y       z     vdW  Elec       q    Type
REMARK                         _______ _______ _______ _____ _____    ______ ____
ROOT
ATOM      1  C   UNL     1       1.010   9.329  20.335  0.00  0.00    +0.000 A 
ATOM      2  C   UNL     1       1.496   8.062  19.973  0.00  0.00    +0.000 A 
ATOM      3  C   UNL     1       2.102   7.845  18.732  0.00  0.00    +0.000 A 
ATOM      4  C   UNL     1       2.173   8.914  17.827  0.00  0.00    +0.000 A 
ATOM      5  C   UNL     1       1.702  10.184  18.173  0.00  0.00    +0.000 A 
ATOM      6  C   UNL     1       1.131  10.388  19.427  0.00  0.00    +0.000 A 
ENDROOT
BRANCH   1   8
ATOM      7  O   UNL     1      -0.506   8.701  22.060  0.00  0.00    +0.000 OA
ATOM      8  C   UNL     1       0.361   9.465  21.667  0.00  0.00    +0.000 C 
BRANCH   8   9
ATOM      9  O   UNL     1       0.849  10.468  22.429  0.00  0.00    +0.000 OA
ATOM     10  H   UNL     1       1.116  11.245  21.890  0.00  0.00    +0.000 HD
ENDBRANCH   8   9
ENDBRANCH   1   8
BRANCH   3  11
ATOM     11  N   UNL     1       2.559   6.548  18.440  0.00  0.00    +0.000 NA
ATOM     12  C   UNL     1       2.307   5.583  19.268  0.00  0.00    +0.000 C 
BRANCH  12  13
ATOM     13  C   UNL     1       2.742   4.193  19.010  0.00  0.00    +0.000 A 
ATOM     14  C   UNL     1       3.769   3.626  19.770  0.00  0.00    +0.000 A 
ATOM     15  C   UNL     1       4.180   2.324  19.494  0.00  0.00    +0.000 A 
ATOM     16  C   UNL     1       3.577   1.580  18.484  0.00  0.00    +0.000 A 
ATOM     17  C   UNL     1       2.545   2.140  17.731  0.00  0.00    +0.000 A 
ATOM     18  C   UNL     1       2.128   3.446  17.994  0.00  0.00    +0.000 A 
BRANCH  15  19
ATOM     19  O   UNL     1       5.185   1.729  20.197  0.00  0.00    +0.000 OA
ATOM     20  H   UNL     1       6.014   2.205  20.018  0.00  0.00    +0.000 HD
ENDBRANCH  15  19
BRANCH  18  21
ATOM     21  O   UNL     1       1.116   3.994  17.255  0.00  0.00    +0.000 OA
ATOM     22  H   UNL     1       1.433   4.825  16.860  0.00  0.00    +0.000 HD
ENDBRANCH  18  21
ENDBRANCH  12  13
ENDBRANCH   3  11
BRANCH   6  23
ATOM     23  O   UNL     1       0.691  11.640  19.770  0.00  0.00    +0.000 OA
ATOM     24  H   UNL     1       1.336  12.296  19.443  0.00  0.00    +0.000 HD
ENDBRANCH   6  23
TORSDOF 7
ENDMDL
MODEL 8
REMARK VINA RESULT:      -6.9      4.639      5.624
REMARK  Name = 
REMARK  7 active torsions:
REMARK  status: ('A' for Active; 'I' for Inactive)
REMARK    1  A    between atoms: C_2  and  O_3
REMARK    2  A    between atoms: C_2  and  C_4
REMARK    3  A    between atoms: C_6  and  N_7
REMARK    4  A    between atoms: C_8  and  C_9
REMARK    5  A    between atoms: C_11  and  O_12
REMARK    6  A    between atoms: C_15  and  O_16
REMARK    7  A    between atoms: C_19  and  O_20
REMARK                            x       y       z     vdW  Elec       q    Type
REMARK                         _______ _______ _______ _____ _____    ______ ____
ROOT
ATOM      1  C   UNL     1       4.192   4.214  17.931  0.00  0.00    +0.000 A 
ATOM      2  C   UNL     1       3.511   5.327  18.448  0.00  0.00    +0.000 A 
ATOM      3  C   UNL     1       3.661   6.596  17.881  0.00  0.00    +0.000 A 
ATOM      4  C   UNL     1       4.549   6.747  16.807  0.00  0.00    +0.000 A 
ATOM      5  C   UNL     1       5.230   5.648  16.274  0.00  0.00    +0.000 A 
ATOM      6  C   UNL     1       5.042   4.386  16.832  0.00  0.00    +0.000 A 
ENDROOT
BRANCH   1   8
ATOM      7  O   UNL     1       2.988   2.225  18.448  0.00  0.00    +0.000 OA
ATOM      8  C   UNL     1       3.990   2.904  18.609  0.00  0.00    +0.000 C 
BRANCH   8   9
ATOM      9  O   UNL     1       5.030   2.500  19.370  0.00  0.00    +0.000 OA
ATOM     10  H   UNL     1       4.818   1.690  19.885  0.00  0.00    +0.000 HD
ENDBRANCH   8   9
ENDBRANCH   1   8
BRANCH   3  11
ATOM     11  N   UNL     1       2.950   7.663  18.457  0.00  0.00    +0.000 NA
ATOM     12  C   UNL     1       2.192   7.442  19.485  0.00  0.00    +0.000 C 
BRANCH  12  13
ATOM     13  C   UNL     1       1.434   8.524  20.151  0.00  0.00    +0.000 A 
ATOM     14  C   UNL     1       1.367   8.578  21.546  0.00  0.00    +0.000 A 
ATOM     15  C   UNL     1       0.627   9.591  22.152  0.00  0.00    +0.000 A 
ATOM     16  C   UNL     1      -0.033  10.551  21.390  0.00  0.00    +0.000 A 
ATOM     17  C   UNL     1       0.041  10.504  19.999  0.00  0.00    +0.000 A 
ATOM     18  C   UNL     1       0.774   9.491  19.379  0.00  0.00    +0.000 A 
BRANCH  15  19
ATOM     19  O   UNL     1       0.519   9.682  23.507  0.00  0.00    +0.000 OA
ATOM     20  H   UNL     1       0.253  10.588  23.738  0.00  0.00    +0.000 HD
ENDBRANCH  15  19
BRANCH  18  21
ATOM     21  O   UNL     1       0.845   9.446  18.014  0.00  0.00    +0.000 OA
ATOM     22  H   UNL     1       1.509  10.092  17.715  0.00  0.00    +0.000 HD
ENDBRANCH  18  21
ENDBRANCH  12  13
ENDBRANCH   3  11
BRANCH   6  23
ATOM     23  O   UNL     1       5.694   3.308  16.292  0.00  0.00    +0.000 OA
ATOM     24  H   UNL     1       6.091   2.790  17.019  0.00  0.00    +0.000 HD
ENDBRANCH   6  23
TORSDOF 7
ENDMDL
MODEL 9
REMARK VINA RESULT:      -6.8      1.463      1.680
REMARK  Name = 
REMARK  7 active torsions:
REMARK  status: ('A' for Active; 'I' for Inactive)
REMARK    1  A    between atoms: C_2  and  O_3
REMARK    2  A    between atoms: C_2  and  C_4
REMARK    3  A    between atoms: C_6  and  N_7
REMARK    4  A    between atoms: C_8  and  C_9
REMARK    5  A    between atoms: C_11  and  O_12
REMARK    6  A    between atoms: C_15  and  O_16
REMARK    7  A    between atoms: C_19  and  O_20
REMARK                            x       y       z     vdW  Elec       q    Type
REMARK                         _______ _______ _______ _____ _____    ______ ____
ROOT
ATOM      1  C   UNL     1       5.919   3.781  13.319  0.00  0.00    +0.000 A 
ATOM      2  C   UNL     1       5.137   3.612  14.472  0.00  0.00    +0.000 A 
ATOM      3  C   UNL     1       5.460   4.260  15.668  0.00  0.00    +0.000 A 
ATOM      4  C   UNL     1       6.616   5.051  15.708  0.00  0.00    +0.000 A 
ATOM      5  C   UNL     1       7.402   5.238  14.567  0.00  0.00    +0.000 A 
ATOM      6  C   UNL     1       7.046   4.610  13.376  0.00  0.00    +0.000 A 
ENDROOT
BRANCH   1   8
ATOM      7  O   UNL     1       4.476   3.267  11.495  0.00  0.00    +0.000 OA
ATOM      8  C   UNL     1       5.515   3.038  12.095  0.00  0.00    +0.000 C 
BRANCH   8   9
ATOM      9  O   UNL     1       6.417   2.128  11.667  0.00  0.00    +0.000 OA
ATOM     10  H   UNL     1       6.045   1.219  11.650  0.00  0.00    +0.000 HD
ENDBRANCH   8   9
ENDBRANCH   1   8
BRANCH   3  11
ATOM     11  N   UNL     1       4.632   4.037  16.782  0.00  0.00    +0.000 NA
ATOM     12  C   UNL     1       3.775   4.946  17.130  0.00  0.00    +0.000 C 
BRANCH  12  13
ATOM     13  C   UNL     1       2.861   4.765  18.279  0.00  0.00    +0.000 A 
ATOM     14  C   UNL     1       2.787   5.741  19.278  0.00  0.00    +0.000 A 
ATOM     15  C   UNL     1       1.939   5.539  20.364  0.00  0.00    +0.000 A 
ATOM     16  C   UNL     1       1.159   4.390  20.461  0.00  0.00    +0.000 A 
ATOM     17  C   UNL     1       1.223   3.421  19.461  0.00  0.00    +0.000 A 
ATOM     18  C   UNL     1       2.074   3.608  18.371  0.00  0.00    +0.000 A 
BRANCH  15  19
ATOM     19  O   UNL     1       1.839   6.453  21.370  0.00  0.00    +0.000 OA
ATOM     20  H   UNL     1       1.797   5.979  22.218  0.00  0.00    +0.000 HD
ENDBRANCH  15  19
BRANCH  18  21
ATOM     21  O   UNL     1       2.136   2.656  17.391  0.00  0.00    +0.000 OA
ATOM     22  H   UNL     1       1.266   2.229  17.315  0.00  0.00    +0.000 HD
ENDBRANCH  18  21
ENDBRANCH  12  13
ENDBRANCH   3  11
BRANCH   6  23
ATOM     23  O   UNL     1       7.807   4.814  12.255  0.00  0.00    +0.000 OA
ATOM     24  H   UNL     1       8.505   4.131  12.225  0.00  0.00    +0.000 HD
ENDBRANCH   6  23
TORSDOF 7
ENDMDL
