MODEL 1
REMARK VINA RESULT:      -9.5      0.000      0.000
REMARK  Name = 
REMARK  8 active torsions:
REMARK  status: ('A' for Active; 'I' for Inactive)
REMARK    1  A    between atoms: C_1  and  O_2
REMARK    2  A    between atoms: O_2  and  C_3
REMARK    3  A    between atoms: C_5  and  C_6
REMARK    4  A    between atoms: C_7  and  S_8
REMARK    5  A    between atoms: S_8  and  N_11
REMARK    6  A    between atoms: N_11  and  C_12
REMARK    7  A    between atoms: C_16  and  C_17
REMARK    8  A    between atoms: C_30  and  C_31
REMARK                            x       y       z     vdW  Elec       q    Type
REMARK                         _______ _______ _______ _____ _____    ______ ____
ROOT
ATOM      1  C   UNL     1       2.168   7.331  19.761  0.00  0.00    +0.000 A 
ATOM      2  C   UNL     1       2.534   7.474  18.427  0.00  0.00    +0.000 A 
ATOM      3  C   UNL     1       2.128   8.599  17.718  0.00  0.00    +0.000 A 
ATOM      4  C   UNL     1       1.368   9.587  18.351  0.00  0.00    +0.000 A 
ATOM      5  C   UNL     1       0.986   9.473  19.702  0.00  0.00    +0.000 A 
ATOM      6  C   UNL     1       1.409   8.318  20.396  0.00  0.00    +0.000 A 
ENDROOT
BRANCH   5   7
ATOM      7  C   UNL     1       0.184  10.534  20.342  0.00  0.00    +0.000 A 
ATOM      8  C   UNL     1      -1.000  11.022  19.820  0.00  0.00    +0.000 A 
ATOM      9  C   UNL     1      -1.680  12.045  20.489  0.00  0.00    +0.000 A 
ATOM     10  C   UNL     1      -1.186  12.582  21.671  0.00  0.00    +0.000 A 
ATOM     11  N   UNL     1      -1.836  13.600  22.330  0.00  0.00    +0.000 N 
ATOM     12  C   UNL     1      -1.362  14.096  23.616  0.00  0.00    +0.000 C 
ATOM     13  C   UNL     1      -2.651  14.378  24.383  0.00  0.00    +0.000 C 
ATOM     14  C   UNL     1      -3.628  14.796  23.295  0.00  0.00    +0.000 C 
ATOM     15  C   UNL     1      -3.231  13.942  22.094  0.00  0.00    +0.000 C 
ATOM     16  N   UNL     1      -0.024  12.087  22.143  0.00  0.00    +0.000 NA
ATOM     17  N   UNL     1       0.661  11.062  21.487  0.00  0.00    +0.000 NA
ENDBRANCH   5   7
BRANCH   1  18
ATOM     18  N   UNL     1       2.652   6.226  20.493  0.00  0.00    +0.000 N 
ATOM     19  H   UNL     1       3.028   6.349  21.429  0.00  0.00    +0.000 HD
BRANCH  18  20
ATOM     20  S   UNL     1       2.597   4.665  19.893  0.00  0.00    +0.000 S 
ATOM     21  O   UNL     1       1.347   4.477  19.192  0.00  0.00    +0.000 OA
ATOM     22  O   UNL     1       2.942   3.808  21.013  0.00  0.00    +0.000 OA
BRANCH  20  27
ATOM     23  C   UNL     1       6.245   4.580  17.085  0.00  0.00    +0.000 A 
ATOM     24  C   UNL     1       5.059   3.955  16.687  0.00  0.00    +0.000 A 
ATOM     25  C   UNL     1       3.908   3.956  17.499  0.00  0.00    +0.000 A 
ATOM     26  C   UNL     1       2.691   3.242  16.980  0.00  0.00    +0.000 C 
ATOM     27  C   UNL     1       3.970   4.609  18.742  0.00  0.00    +0.000 A 
ATOM     28  C   UNL     1       5.172   5.209  19.160  0.00  0.00    +0.000 A 
ATOM     29  C   UNL     1       6.314   5.194  18.342  0.00  0.00    +0.000 A 
ATOM     30  C   UNL     1       7.594   5.827  18.818  0.00  0.00    +0.000 C 
BRANCH  23  32
ATOM     31  C   UNL     1       7.209   4.704  14.922  0.00  0.00    +0.000 C 
ATOM     32  O   UNL     1       7.390   4.594  16.332  0.00  0.00    +0.000 OA
ENDBRANCH  23  32
ENDBRANCH  20  27
ENDBRANCH  18  20
ENDBRANCH   1  18
TORSDOF 5
ENDMDL
MODEL 2
REMARK VINA RESULT:      -9.4      0.863      1.194
REMARK  Name = 
REMARK  8 active torsions:
REMARK  status: ('A' for Active; 'I' for Inactive)
REMARK    1  A    between atoms: C_1  and  O_2
REMARK    2  A    between atoms: O_2  and  C_3
REMARK    3  A    between atoms: C_5  and  C_6
REMARK    4  A    between atoms: C_7  and  S_8
REMARK    5  A    between atoms: S_8  and  N_11
REMARK    6  A    between atoms: N_11  and  C_12
REMARK    7  A    between atoms: C_16  and  C_17
REMARK    8  A    between atoms: C_30  and  C_31
REMARK                            x       y       z     vdW  Elec       q    Type
REMARK                         _______ _______ _______ _____ _____    ______ ____
ROOT
ATOM      1  C   UNL     1       2.140   7.535  19.714  0.00  0.00    +0.000 A 
ATOM      2  C   UNL     1       2.439   7.821  18.387  0.00  0.00    +0.000 A 
ATOM      3  C   UNL     1       1.884   8.944  17.781  0.00  0.00    +0.000 A 
ATOM      4  C   UNL     1       1.043   9.786  18.513  0.00  0.00    +0.000 A 
ATOM      5  C   UNL     1       0.725   9.525  19.860  0.00  0.00    +0.000 A 
ATOM      6  C   UNL     1       1.298   8.376  20.447  0.00  0.00    +0.000 A 
ENDROOT
BRANCH   5   7
ATOM      7  C   UNL     1      -0.167  10.435  20.605  0.00  0.00    +0.000 A 
ATOM      8  C   UNL     1      -0.234  10.485  21.986  0.00  0.00    +0.000 A 
ATOM      9  C   UNL     1      -1.126  11.367  22.603  0.00  0.00    +0.000 A 
ATOM     10  C   UNL     1      -1.951  12.196  21.853  0.00  0.00    +0.000 A 
ATOM     11  N   UNL     1      -2.846  13.056  22.447  0.00  0.00    +0.000 N 
ATOM     12  C   UNL     1      -3.641  13.987  21.659  0.00  0.00    +0.000 C 
ATOM     13  C   UNL     1      -3.681  15.242  22.527  0.00  0.00    +0.000 C 
ATOM     14  C   UNL     1      -3.649  14.695  23.945  0.00  0.00    +0.000 C 
ATOM     15  C   UNL     1      -2.760  13.458  23.844  0.00  0.00    +0.000 C 
ATOM     16  N   UNL     1      -1.864  12.112  20.510  0.00  0.00    +0.000 NA
ATOM     17  N   UNL     1      -0.973  11.239  19.883  0.00  0.00    +0.000 NA
ENDBRANCH   5   7
BRANCH   1  18
ATOM     18  N   UNL     1       2.770   6.439  20.341  0.00  0.00    +0.000 N 
ATOM     19  H   UNL     1       3.318   6.571  21.187  0.00  0.00    +0.000 HD
BRANCH  18  20
ATOM     20  S   UNL     1       2.621   4.875  19.766  0.00  0.00    +0.000 S 
ATOM     21  O   UNL     1       1.356   4.748  19.078  0.00  0.00    +0.000 OA
ATOM     22  O   UNL     1       2.926   4.017  20.896  0.00  0.00    +0.000 OA
BRANCH  20  27
ATOM     23  C   UNL     1       6.228   4.566  16.921  0.00  0.00    +0.000 A 
ATOM     24  C   UNL     1       5.060   3.855  16.627  0.00  0.00    +0.000 A 
ATOM     25  C   UNL     1       3.922   3.917  17.454  0.00  0.00    +0.000 A 
ATOM     26  C   UNL     1       2.725   3.101  17.052  0.00  0.00    +0.000 C 
ATOM     27  C   UNL     1       3.978   4.723  18.605  0.00  0.00    +0.000 A 
ATOM     28  C   UNL     1       5.163   5.413  18.921  0.00  0.00    +0.000 A 
ATOM     29  C   UNL     1       6.293   5.336  18.089  0.00  0.00    +0.000 A 
ATOM     30  C   UNL     1       7.555   6.068  18.458  0.00  0.00    +0.000 C 
BRANCH  23  32
ATOM     31  C   UNL     1       7.191   4.856  14.773  0.00  0.00    +0.000 C 
ATOM     32  O   UNL     1       7.361   4.526  16.149  0.00  0.00    +0.000 OA
ENDBRANCH  23  32
ENDBRANCH  20  27
ENDBRANCH  18  20
ENDBRANCH   1  18
TORSDOF 5
ENDMDL
MODEL 3
REMARK VINA RESULT:      -8.9      6.271      8.125
REMARK  Name = 
REMARK  8 active torsions:
REMARK  status: ('A' for Active; 'I' for Inactive)
REMARK    1  A    between atoms: C_1  and  O_2
REMARK    2  A    between atoms: O_2  and  C_3
REMARK    3  A    between atoms: C_5  and  C_6
REMARK    4  A    between atoms: C_7  and  S_8
REMARK    5  A    between atoms: S_8  and  N_11
REMARK    6  A    between atoms: N_11  and  C_12
REMARK    7  A    between atoms: C_16  and  C_17
REMARK    8  A    between atoms: C_30  and  C_31
REMARK                            x       y       z     vdW  Elec       q    Type
REMARK                         _______ _______ _______ _____ _____    ______ ____
ROOT
ATOM      1  C   UNL     1       7.447   5.881  16.938  0.00  0.00    +0.000 A 
ATOM      2  C   UNL     1       7.499   5.060  18.059  0.00  0.00    +0.000 A 
ATOM      3  C   UNL     1       7.888   5.590  19.284  0.00  0.00    +0.000 A 
ATOM      4  C   UNL     1       8.208   6.946  19.388  0.00  0.00    +0.000 A 
ATOM      5  C   UNL     1       8.160   7.804  18.271  0.00  0.00    +0.000 A 
ATOM      6  C   UNL     1       7.766   7.238  17.039  0.00  0.00    +0.000 A 
ENDROOT
BRANCH   5   7
ATOM      7  C   UNL     1       8.503   9.233  18.413  0.00  0.00    +0.000 A 
ATOM      8  C   UNL     1       8.086  10.215  17.533  0.00  0.00    +0.000 A 
ATOM      9  C   UNL     1       8.480  11.540  17.739  0.00  0.00    +0.000 A 
ATOM     10  C   UNL     1       9.287  11.891  18.814  0.00  0.00    +0.000 A 
ATOM     11  N   UNL     1       9.696  13.189  19.019  0.00  0.00    +0.000 N 
ATOM     12  C   UNL     1      10.465  13.565  20.198  0.00  0.00    +0.000 C 
ATOM     13  C   UNL     1       9.909  14.940  20.559  0.00  0.00    +0.000 C 
ATOM     14  C   UNL     1       9.532  15.536  19.211  0.00  0.00    +0.000 C 
ATOM     15  C   UNL     1       9.050  14.337  18.399  0.00  0.00    +0.000 C 
ATOM     16  N   UNL     1       9.681  10.904  19.645  0.00  0.00    +0.000 NA
ATOM     17  N   UNL     1       9.290   9.578  19.452  0.00  0.00    +0.000 NA
ENDBRANCH   5   7
BRANCH   1  18
ATOM     18  N   UNL     1       6.975   5.351  15.718  0.00  0.00    +0.000 N 
ATOM     19  H   UNL     1       7.603   4.857  15.090  0.00  0.00    +0.000 HD
BRANCH  18  20
ATOM     20  S   UNL     1       5.370   5.463  15.258  0.00  0.00    +0.000 S 
ATOM     21  O   UNL     1       5.125   4.527  14.184  0.00  0.00    +0.000 OA
ATOM     22  O   UNL     1       5.123   6.880  15.061  0.00  0.00    +0.000 OA
BRANCH  20  27
ATOM     23  C   UNL     1       3.142   4.007  19.015  0.00  0.00    +0.000 A 
ATOM     24  C   UNL     1       3.285   5.380  18.791  0.00  0.00    +0.000 A 
ATOM     25  C   UNL     1       3.948   5.886  17.656  0.00  0.00    +0.000 A 
ATOM     26  C   UNL     1       4.056   7.379  17.522  0.00  0.00    +0.000 C 
ATOM     27  C   UNL     1       4.475   4.969  16.730  0.00  0.00    +0.000 A 
ATOM     28  C   UNL     1       4.364   3.587  16.969  0.00  0.00    +0.000 A 
ATOM     29  C   UNL     1       3.705   3.098  18.110  0.00  0.00    +0.000 A 
ATOM     30  C   UNL     1       3.614   1.616  18.354  0.00  0.00    +0.000 C 
BRANCH  23  32
ATOM     31  C   UNL     1       1.178   3.911  20.339  0.00  0.00    +0.000 C 
ATOM     32  O   UNL     1       2.514   3.473  20.110  0.00  0.00    +0.000 OA
ENDBRANCH  23  32
ENDBRANCH  20  27
ENDBRANCH  18  20
ENDBRANCH   1  18
TORSDOF 5
ENDMDL
MODEL 4
REMARK VINA RESULT:      -8.8      6.164      8.279
REMARK  Name = 
REMARK  8 active torsions:
REMARK  status: ('A' for Active; 'I' for Inactive)
REMARK    1  A    between atoms: C_1  and  O_2
REMARK    2  A    between atoms: O_2  and  C_3
REMARK    3  A    between atoms: C_5  and  C_6
REMARK    4  A    between atoms: C_7  and  S_8
REMARK    5  A    between atoms: S_8  and  N_11
REMARK    6  A    between atoms: N_11  and  C_12
REMARK    7  A    between atoms: C_16  and  C_17
REMARK    8  A    between atoms: C_30  and  C_31
REMARK                            x       y       z     vdW  Elec       q    Type
REMARK                         _______ _______ _______ _____ _____    ______ ____
ROOT
ATOM      1  C   UNL     1       7.450   5.896  16.937  0.00  0.00    +0.000 A 
ATOM      2  C   UNL     1       7.485   5.051  18.040  0.00  0.00    +0.000 A 
ATOM      3  C   UNL     1       7.870   5.550  19.280  0.00  0.00    +0.000 A 
ATOM      4  C   UNL     1       8.203   6.900  19.415  0.00  0.00    +0.000 A 
ATOM      5  C   UNL     1       8.172   7.783  18.318  0.00  0.00    +0.000 A 
ATOM      6  C   UNL     1       7.783   7.247  17.071  0.00  0.00    +0.000 A 
ENDROOT
BRANCH   5   7
ATOM      7  C   UNL     1       8.530   9.204  18.494  0.00  0.00    +0.000 A 
ATOM      8  C   UNL     1       9.302   9.679  19.539  0.00  0.00    +0.000 A 
ATOM      9  C   UNL     1       9.571  11.048  19.633  0.00  0.00    +0.000 A 
ATOM     10  C   UNL     1       9.075  11.944  18.694  0.00  0.00    +0.000 A 
ATOM     11  N   UNL     1       9.318  13.295  18.784  0.00  0.00    +0.000 N 
ATOM     12  C   UNL     1       8.872  14.217  17.748  0.00  0.00    +0.000 C 
ATOM     13  C   UNL     1      10.016  15.224  17.656  0.00  0.00    +0.000 C 
ATOM     14  C   UNL     1      10.550  15.287  19.078  0.00  0.00    +0.000 C 
ATOM     15  C   UNL     1      10.383  13.862  19.599  0.00  0.00    +0.000 C 
ATOM     16  N   UNL     1       8.318  11.444  17.695  0.00  0.00    +0.000 NA
ATOM     17  N   UNL     1       8.047  10.078  17.588  0.00  0.00    +0.000 NA
ENDBRANCH   5   7
BRANCH   1  18
ATOM     18  N   UNL     1       6.983   5.399  15.703  0.00  0.00    +0.000 N 
ATOM     19  H   UNL     1       7.614   4.926  15.062  0.00  0.00    +0.000 HD
BRANCH  18  20
ATOM     20  S   UNL     1       5.377   5.515  15.244  0.00  0.00    +0.000 S 
ATOM     21  O   UNL     1       5.137   4.600  14.151  0.00  0.00    +0.000 OA
ATOM     22  O   UNL     1       5.125   6.934  15.076  0.00  0.00    +0.000 OA
BRANCH  20  27
ATOM     23  C   UNL     1       3.154   3.974  18.969  0.00  0.00    +0.000 A 
ATOM     24  C   UNL     1       3.285   5.352  18.770  0.00  0.00    +0.000 A 
ATOM     25  C   UNL     1       3.946   5.883  17.645  0.00  0.00    +0.000 A 
ATOM     26  C   UNL     1       4.041   7.379  17.538  0.00  0.00    +0.000 C 
ATOM     27  C   UNL     1       4.484   4.987  16.704  0.00  0.00    +0.000 A 
ATOM     28  C   UNL     1       4.384   3.600  16.920  0.00  0.00    +0.000 A 
ATOM     29  C   UNL     1       3.726   3.085  18.050  0.00  0.00    +0.000 A 
ATOM     30  C   UNL     1       3.648   1.598  18.267  0.00  0.00    +0.000 C 
BRANCH  23  32
ATOM     31  C   UNL     1       2.247   4.298  21.136  0.00  0.00    +0.000 C 
ATOM     32  O   UNL     1       2.528   3.415  20.054  0.00  0.00    +0.000 OA
ENDBRANCH  23  32
ENDBRANCH  20  27
ENDBRANCH  18  20
ENDBRANCH   1  18
TORSDOF 5
ENDMDL
MODEL 5
REMARK VINA RESULT:      -8.6      4.478      8.294
REMARK  Name = 
REMARK  8 active torsions:
REMARK  status: ('A' for Active; 'I' for Inactive)
REMARK    1  A    between atoms: C_1  and  O_2
REMARK    2  A    between atoms: O_2  and  C_3
REMARK    3  A    between atoms: C_5  and  C_6
REMARK    4  A    between atoms: C_7  and  S_8
REMARK    5  A    between atoms: S_8  and  N_11
REMARK    6  A    between atoms: N_11  and  C_12
REMARK    7  A    between atoms: C_16  and  C_17
REMARK    8  A    between atoms: C_30  and  C_31
REMARK                            x       y       z     vdW  Elec       q    Type
REMARK                         _______ _______ _______ _____ _____    ______ ____
ROOT
ATOM      1  C   UNL     1       4.918   4.112  16.585  0.00  0.00    +0.000 A 
ATOM      2  C   UNL     1       5.541   3.502  15.502  0.00  0.00    +0.000 A 
ATOM      3  C   UNL     1       6.741   4.012  15.019  0.00  0.00    +0.000 A 
ATOM      4  C   UNL     1       7.324   5.123  15.633  0.00  0.00    +0.000 A 
ATOM      5  C   UNL     1       6.721   5.760  16.735  0.00  0.00    +0.000 A 
ATOM      6  C   UNL     1       5.500   5.224  17.201  0.00  0.00    +0.000 A 
ENDROOT
BRANCH   5   7
ATOM      7  C   UNL     1       7.362   6.933  17.362  0.00  0.00    +0.000 A 
ATOM      8  C   UNL     1       8.088   6.874  18.538  0.00  0.00    +0.000 A 
ATOM      9  C   UNL     1       8.642   8.044  19.067  0.00  0.00    +0.000 A 
ATOM     10  C   UNL     1       8.476   9.269  18.432  0.00  0.00    +0.000 A 
ATOM     11  N   UNL     1       9.001  10.430  18.951  0.00  0.00    +0.000 N 
ATOM     12  C   UNL     1       8.901  11.694  18.235  0.00  0.00    +0.000 C 
ATOM     13  C   UNL     1      10.242  12.366  18.514  0.00  0.00    +0.000 C 
ATOM     14  C   UNL     1      10.601  11.877  19.909  0.00  0.00    +0.000 C 
ATOM     15  C   UNL     1      10.059  10.451  19.951  0.00  0.00    +0.000 C 
ATOM     16  N   UNL     1       7.753   9.287  17.294  0.00  0.00    +0.000 NA
ATOM     17  N   UNL     1       7.199   8.124  16.753  0.00  0.00    +0.000 NA
ENDBRANCH   5   7
BRANCH   1  18
ATOM     18  N   UNL     1       3.743   3.540  17.116  0.00  0.00    +0.000 N 
ATOM     19  H   UNL     1       2.987   3.246  16.504  0.00  0.00    +0.000 HD
BRANCH  18  20
ATOM     20  S   UNL     1       3.543   3.274  18.756  0.00  0.00    +0.000 S 
ATOM     21  O   UNL     1       4.837   3.035  19.352  0.00  0.00    +0.000 OA
ATOM     22  O   UNL     1       2.495   2.274  18.860  0.00  0.00    +0.000 OA
BRANCH  20  27
ATOM     23  C   UNL     1       1.796   7.316  20.100  0.00  0.00    +0.000 A 
ATOM     24  C   UNL     1       1.717   6.216  20.959  0.00  0.00    +0.000 A 
ATOM     25  C   UNL     1       2.241   4.957  20.607  0.00  0.00    +0.000 A 
ATOM     26  C   UNL     1       2.089   3.838  21.600  0.00  0.00    +0.000 C 
ATOM     27  C   UNL     1       2.860   4.820  19.352  0.00  0.00    +0.000 A 
ATOM     28  C   UNL     1       2.910   5.916  18.472  0.00  0.00    +0.000 A 
ATOM     29  C   UNL     1       2.377   7.165  18.834  0.00  0.00    +0.000 A 
ATOM     30  C   UNL     1       2.427   8.318  17.869  0.00  0.00    +0.000 C 
BRANCH  23  32
ATOM     31  C   UNL     1       0.455   8.629  21.550  0.00  0.00    +0.000 C 
ATOM     32  O   UNL     1       1.290   8.556  20.397  0.00  0.00    +0.000 OA
ENDBRANCH  23  32
ENDBRANCH  20  27
ENDBRANCH  18  20
ENDBRANCH   1  18
TORSDOF 5
ENDMDL
MODEL 6
REMARK VINA RESULT:      -8.6      3.930      9.783
REMARK  Name = 
REMARK  8 active torsions:
REMARK  status: ('A' for Active; 'I' for Inactive)
REMARK    1  A    between atoms: C_1  and  O_2
REMARK    2  A    between atoms: O_2  and  C_3
REMARK    3  A    between atoms: C_5  and  C_6
REMARK    4  A    between atoms: C_7  and  S_8
REMARK    5  A    between atoms: S_8  and  N_11
REMARK    6  A    between atoms: N_11  and  C_12
REMARK    7  A    between atoms: C_16  and  C_17
REMARK    8  A    between atoms: C_30  and  C_31
REMARK                            x       y       z     vdW  Elec       q    Type
REMARK                         _______ _______ _______ _____ _____    ______ ____
ROOT
ATOM      1  C   UNL     1       0.106  11.534  21.497  0.00  0.00    +0.000 A 
ATOM      2  C   UNL     1      -0.679  11.320  22.624  0.00  0.00    +0.000 A 
ATOM      3  C   UNL     1      -0.833  10.030  23.122  0.00  0.00    +0.000 A 
ATOM      4  C   UNL     1      -0.186   8.960  22.499  0.00  0.00    +0.000 A 
ATOM      5  C   UNL     1       0.620   9.146  21.358  0.00  0.00    +0.000 A 
ATOM      6  C   UNL     1       0.754  10.465  20.872  0.00  0.00    +0.000 A 
ENDROOT
BRANCH   5   7
ATOM      7  C   UNL     1       1.290   7.994  20.723  0.00  0.00    +0.000 A 
ATOM      8  C   UNL     1       1.214   6.700  21.204  0.00  0.00    +0.000 A 
ATOM      9  C   UNL     1       1.902   5.676  20.545  0.00  0.00    +0.000 A 
ATOM     10  C   UNL     1       2.664   5.936  19.412  0.00  0.00    +0.000 A 
ATOM     11  N   UNL     1       3.359   4.941  18.764  0.00  0.00    +0.000 N 
ATOM     12  C   UNL     1       4.081   5.203  17.526  0.00  0.00    +0.000 C 
ATOM     13  C   UNL     1       3.849   3.936  16.707  0.00  0.00    +0.000 C 
ATOM     14  C   UNL     1       3.762   2.842  17.761  0.00  0.00    +0.000 C 
ATOM     15  C   UNL     1       3.079   3.524  18.944  0.00  0.00    +0.000 C 
ATOM     16  N   UNL     1       2.721   7.212  18.980  0.00  0.00    +0.000 NA
ATOM     17  N   UNL     1       2.035   8.242  19.627  0.00  0.00    +0.000 NA
ENDBRANCH   5   7
BRANCH   1  18
ATOM     18  N   UNL     1       0.320  12.854  21.047  0.00  0.00    +0.000 N 
ATOM     19  H   UNL     1       0.651  13.572  21.686  0.00  0.00    +0.000 HD
BRANCH  18  20
ATOM     20  S   UNL     1       0.087  13.303  19.452  0.00  0.00    +0.000 S 
ATOM     21  O   UNL     1       1.130  12.712  18.644  0.00  0.00    +0.000 OA
ATOM     22  O   UNL     1      -0.088  14.743  19.477  0.00  0.00    +0.000 OA
BRANCH  20  27
ATOM     23  C   UNL     1      -3.899  11.317  18.284  0.00  0.00    +0.000 A 
ATOM     24  C   UNL     1      -3.871  12.227  19.346  0.00  0.00    +0.000 A 
ATOM     25  C   UNL     1      -2.684  12.873  19.743  0.00  0.00    +0.000 A 
ATOM     26  C   UNL     1      -2.765  13.821  20.907  0.00  0.00    +0.000 C 
ATOM     27  C   UNL     1      -1.501  12.583  19.040  0.00  0.00    +0.000 A 
ATOM     28  C   UNL     1      -1.519  11.643  17.994  0.00  0.00    +0.000 A 
ATOM     29  C   UNL     1      -2.711  11.002  17.613  0.00  0.00    +0.000 A 
ATOM     30  C   UNL     1      -2.701   9.987  16.502  0.00  0.00    +0.000 C 
BRANCH  23  32
ATOM     31  C   UNL     1      -6.154  10.743  18.742  0.00  0.00    +0.000 C 
ATOM     32  O   UNL     1      -5.029  10.659  17.871  0.00  0.00    +0.000 OA
ENDBRANCH  23  32
ENDBRANCH  20  27
ENDBRANCH  18  20
ENDBRANCH   1  18
TORSDOF 5
ENDMDL
MODEL 7
REMARK VINA RESULT:      -8.5      3.983      9.890
REMARK  Name = 
REMARK  8 active torsions:
REMARK  status: ('A' for Active; 'I' for Inactive)
REMARK    1  A    between atoms: C_1  and  O_2
REMARK    2  A    between atoms: O_2  and  C_3
REMARK    3  A    between atoms: C_5  and  C_6
REMARK    4  A    between atoms: C_7  and  S_8
REMARK    5  A    between atoms: S_8  and  N_11
REMARK    6  A    between atoms: N_11  and  C_12
REMARK    7  A    between atoms: C_16  and  C_17
REMARK    8  A    between atoms: C_30  and  C_31
REMARK                            x       y       z     vdW  Elec       q    Type
REMARK                         _______ _______ _______ _____ _____    ______ ____
ROOT
ATOM      1  C   UNL     1      -0.011  11.529  21.584  0.00  0.00    +0.000 A 
ATOM      2  C   UNL     1      -0.736  10.932  22.610  0.00  0.00    +0.000 A 
ATOM      3  C   UNL     1      -0.706   9.550  22.761  0.00  0.00    +0.000 A 
ATOM      4  C   UNL     1       0.065   8.770  21.895  0.00  0.00    +0.000 A 
ATOM      5  C   UNL     1       0.814   9.346  20.850  0.00  0.00    +0.000 A 
ATOM      6  C   UNL     1       0.760  10.750  20.717  0.00  0.00    +0.000 A 
ENDROOT
BRANCH   5   7
ATOM      7  C   UNL     1       1.618   8.494  19.952  0.00  0.00    +0.000 A 
ATOM      8  C   UNL     1       2.038   8.887  18.694  0.00  0.00    +0.000 A 
ATOM      9  C   UNL     1       2.780   8.001  17.906  0.00  0.00    +0.000 A 
ATOM     10  C   UNL     1       3.104   6.730  18.364  0.00  0.00    +0.000 A 
ATOM     11  N   UNL     1       3.818   5.843  17.592  0.00  0.00    +0.000 N 
ATOM     12  C   UNL     1       4.232   4.547  18.113  0.00  0.00    +0.000 C 
ATOM     13  C   UNL     1       5.621   4.351  17.512  0.00  0.00    +0.000 C 
ATOM     14  C   UNL     1       5.530   5.059  16.168  0.00  0.00    +0.000 C 
ATOM     15  C   UNL     1       4.609   6.245  16.438  0.00  0.00    +0.000 C 
ATOM     16  N   UNL     1       2.668   6.381  19.592  0.00  0.00    +0.000 NA
ATOM     17  N   UNL     1       1.930   7.258  20.389  0.00  0.00    +0.000 NA
ENDBRANCH   5   7
BRANCH   1  18
ATOM     18  N   UNL     1       0.014  12.936  21.488  0.00  0.00    +0.000 N 
ATOM     19  H   UNL     1       0.270  13.506  22.290  0.00  0.00    +0.000 HD
BRANCH  18  20
ATOM     20  S   UNL     1      -0.326  13.740  20.060  0.00  0.00    +0.000 S 
ATOM     21  O   UNL     1       0.779  13.556  19.146  0.00  0.00    +0.000 OA
ATOM     22  O   UNL     1      -0.730  15.077  20.456  0.00  0.00    +0.000 OA
BRANCH  20  27
ATOM     23  C   UNL     1      -3.964  11.492  18.356  0.00  0.00    +0.000 A 
ATOM     24  C   UNL     1      -4.096  12.199  19.555  0.00  0.00    +0.000 A 
ATOM     25  C   UNL     1      -3.021  12.913  20.120  0.00  0.00    +0.000 A 
ATOM     26  C   UNL     1      -3.269  13.627  21.420  0.00  0.00    +0.000 C 
ATOM     27  C   UNL     1      -1.787  12.905  19.446  0.00  0.00    +0.000 A 
ATOM     28  C   UNL     1      -1.643  12.166  18.258  0.00  0.00    +0.000 A 
ATOM     29  C   UNL     1      -2.722  11.453  17.709  0.00  0.00    +0.000 A 
ATOM     30  C   UNL     1      -2.538  10.655  16.446  0.00  0.00    +0.000 C 
BRANCH  23  32
ATOM     31  C   UNL     1      -6.198  10.712  18.513  0.00  0.00    +0.000 C 
ATOM     32  O   UNL     1      -4.980  10.776  17.776  0.00  0.00    +0.000 OA
ENDBRANCH  23  32
ENDBRANCH  20  27
ENDBRANCH  18  20
ENDBRANCH   1  18
TORSDOF 5
ENDMDL
MODEL 8
REMARK VINA RESULT:      -8.5      3.913     10.023
REMARK  Name = 
REMARK  8 active torsions:
REMARK  status: ('A' for Active; 'I' for Inactive)
REMARK    1  A    between atoms: C_1  and  O_2
REMARK    2  A    between atoms: O_2  and  C_3
REMARK    3  A    between atoms: C_5  and  C_6
REMARK    4  A    between atoms: C_7  and  S_8
REMARK    5  A    between atoms: S_8  and  N_11
REMARK    6  A    between atoms: N_11  and  C_12
REMARK    7  A    between atoms: C_16  and  C_17
REMARK    8  A    between atoms: C_30  and  C_31
REMARK                            x       y       z     vdW  Elec       q    Type
REMARK                         _______ _______ _______ _____ _____    ______ ____
ROOT
ATOM      1  C   UNL     1       0.390  10.721  20.945  0.00  0.00    +0.000 A 
ATOM      2  C   UNL     1      -0.480  10.122  21.849  0.00  0.00    +0.000 A 
ATOM      3  C   UNL     1      -0.502   8.736  21.970  0.00  0.00    +0.000 A 
ATOM      4  C   UNL     1       0.360   7.955  21.196  0.00  0.00    +0.000 A 
ATOM      5  C   UNL     1       1.256   8.532  20.276  0.00  0.00    +0.000 A 
ATOM      6  C   UNL     1       1.253   9.941  20.170  0.00  0.00    +0.000 A 
ENDROOT
BRANCH   5   7
ATOM      7  C   UNL     1       2.154   7.679  19.473  0.00  0.00    +0.000 A 
ATOM      8  C   UNL     1       2.479   6.377  19.808  0.00  0.00    +0.000 A 
ATOM      9  C   UNL     1       3.357   5.653  18.995  0.00  0.00    +0.000 A 
ATOM     10  C   UNL     1       3.911   6.219  17.854  0.00  0.00    +0.000 A 
ATOM     11  N   UNL     1       4.789   5.524  17.055  0.00  0.00    +0.000 N 
ATOM     12  C   UNL     1       5.295   6.090  15.811  0.00  0.00    +0.000 C 
ATOM     13  C   UNL     1       5.344   4.889  14.870  0.00  0.00    +0.000 C 
ATOM     14  C   UNL     1       5.656   3.724  15.796  0.00  0.00    +0.000 C 
ATOM     15  C   UNL     1       4.925   4.075  17.090  0.00  0.00    +0.000 C 
ATOM     16  N   UNL     1       3.578   7.494  17.566  0.00  0.00    +0.000 NA
ATOM     17  N   UNL     1       2.699   8.225  18.367  0.00  0.00    +0.000 NA
ENDBRANCH   5   7
BRANCH   1  18
ATOM     18  N   UNL     1       0.461  12.129  20.887  0.00  0.00    +0.000 N 
ATOM     19  H   UNL     1       0.744  12.667  21.702  0.00  0.00    +0.000 HD
BRANCH  18  20
ATOM     20  S   UNL     1       0.132  12.982  19.486  0.00  0.00    +0.000 S 
ATOM     21  O   UNL     1       1.094  12.609  18.475  0.00  0.00    +0.000 OA
ATOM     22  O   UNL     1       0.008  14.369  19.898  0.00  0.00    +0.000 OA
BRANCH  20  27
ATOM     23  C   UNL     1      -3.991  11.416  18.164  0.00  0.00    +0.000 A 
ATOM     24  C   UNL     1      -3.877  12.111  19.372  0.00  0.00    +0.000 A 
ATOM     25  C   UNL     1      -2.644  12.622  19.824  0.00  0.00    +0.000 A 
ATOM     26  C   UNL     1      -2.633  13.342  21.144  0.00  0.00    +0.000 C 
ATOM     27  C   UNL     1      -1.505  12.419  19.026  0.00  0.00    +0.000 A 
ATOM     28  C   UNL     1      -1.611  11.690  17.827  0.00  0.00    +0.000 A 
ATOM     29  C   UNL     1      -2.846  11.181  17.392  0.00  0.00    +0.000 A 
ATOM     30  C   UNL     1      -2.931  10.389  16.114  0.00  0.00    +0.000 C 
BRANCH  23  32
ATOM     31  C   UNL     1      -6.236  10.812  18.631  0.00  0.00    +0.000 C 
ATOM     32  O   UNL     1      -5.167  10.893  17.692  0.00  0.00    +0.000 OA
ENDBRANCH  23  32
ENDBRANCH  20  27
ENDBRANCH  18  20
ENDBRANCH   1  18
TORSDOF 5
ENDMDL
MODEL 9
REMARK VINA RESULT:      -8.5      4.209      9.626
REMARK  Name = 
REMARK  8 active torsions:
REMARK  status: ('A' for Active; 'I' for Inactive)
REMARK    1  A    between atoms: C_1  and  O_2
REMARK    2  A    between atoms: O_2  and  C_3
REMARK    3  A    between atoms: C_5  and  C_6
REMARK    4  A    between atoms: C_7  and  S_8
REMARK    5  A    between atoms: S_8  and  N_11
REMARK    6  A    between atoms: N_11  and  C_12
REMARK    7  A    between atoms: C_16  and  C_17
REMARK    8  A    between atoms: C_30  and  C_31
REMARK                            x       y       z     vdW  Elec       q    Type
REMARK                         _______ _______ _______ _____ _____    ______ ____
ROOT
ATOM      1  C   UNL     1      -0.071  11.372  21.733  0.00  0.00    +0.000 A 
ATOM      2  C   UNL     1      -0.783  10.716  22.731  0.00  0.00    +0.000 A 
ATOM      3  C   UNL     1      -0.727   9.329  22.819  0.00  0.00    +0.000 A 
ATOM      4  C   UNL     1       0.056   8.604  21.916  0.00  0.00    +0.000 A 
ATOM      5  C   UNL     1       0.792   9.241  20.899  0.00  0.00    +0.000 A 
ATOM      6  C   UNL     1       0.713  10.649  20.830  0.00  0.00    +0.000 A 
ENDROOT
BRANCH   5   7
ATOM      7  C   UNL     1       1.610   8.446  19.961  0.00  0.00    +0.000 A 
ATOM      8  C   UNL     1       2.033   8.909  18.728  0.00  0.00    +0.000 A 
ATOM      9  C   UNL     1       2.788   8.074  17.899  0.00  0.00    +0.000 A 
ATOM     10  C   UNL     1       3.123   6.784  18.291  0.00  0.00    +0.000 A 
ATOM     11  N   UNL     1       3.851   5.946  17.478  0.00  0.00    +0.000 N 
ATOM     12  C   UNL     1       4.276   4.629  17.931  0.00  0.00    +0.000 C 
ATOM     13  C   UNL     1       5.671   4.481  17.328  0.00  0.00    +0.000 C 
ATOM     14  C   UNL     1       5.579   5.257  16.024  0.00  0.00    +0.000 C 
ATOM     15  C   UNL     1       4.643   6.418  16.350  0.00  0.00    +0.000 C 
ATOM     16  N   UNL     1       2.685   6.366  19.496  0.00  0.00    +0.000 NA
ATOM     17  N   UNL     1       1.934   7.192  20.335  0.00  0.00    +0.000 NA
ENDBRANCH   5   7
BRANCH   1  18
ATOM     18  N   UNL     1      -0.071  12.783  21.702  0.00  0.00    +0.000 N 
ATOM     19  H   UNL     1       0.759  13.307  21.964  0.00  0.00    +0.000 HD
BRANCH  18  20
ATOM     20  S   UNL     1      -1.402  13.664  21.200  0.00  0.00    +0.000 S 
ATOM     21  O   UNL     1      -0.976  15.004  20.864  0.00  0.00    +0.000 OA
ATOM     22  O   UNL     1      -2.412  13.455  22.222  0.00  0.00    +0.000 OA
BRANCH  20  27
ATOM     23  C   UNL     1      -2.996  11.451  17.491  0.00  0.00    +0.000 A 
ATOM     24  C   UNL     1      -1.692  11.957  17.480  0.00  0.00    +0.000 A 
ATOM     25  C   UNL     1      -1.146  12.634  18.588  0.00  0.00    +0.000 A 
ATOM     26  C   UNL     1       0.261  13.149  18.463  0.00  0.00    +0.000 C 
ATOM     27  C   UNL     1      -1.949  12.798  19.730  0.00  0.00    +0.000 A 
ATOM     28  C   UNL     1      -3.273  12.321  19.732  0.00  0.00    +0.000 A 
ATOM     29  C   UNL     1      -3.806  11.652  18.616  0.00  0.00    +0.000 A 
ATOM     30  C   UNL     1      -5.230  11.167  18.635  0.00  0.00    +0.000 C 
BRANCH  23  32
ATOM     31  C   UNL     1      -2.709   9.936  15.690  0.00  0.00    +0.000 C 
ATOM     32  O   UNL     1      -3.570  10.795  16.432  0.00  0.00    +0.000 OA
ENDBRANCH  23  32
ENDBRANCH  20  27
ENDBRANCH  18  20
ENDBRANCH   1  18
TORSDOF 5
ENDMDL
