MODEL 1
REMARK VINA RESULT:      -7.3      0.000      0.000
REMARK  Name = 
REMARK  9 active torsions:
REMARK  status: ('A' for Active; 'I' for Inactive)
REMARK    1  A    between atoms: C_4  and  O_5
REMARK    2  A    between atoms: N_9  and  C1*_10
REMARK    3  A    between atoms: C4*_12  and  C5*_13
REMARK    4  A    between atoms: C5*_13  and  O5*_14
REMARK    5  A    between atoms: C3*_15  and  O3*_16
REMARK    6  A    between atoms: C2*_17  and  O2*_18
REMARK    7  A    between atoms: N_21  and  C_22
REMARK    8  A    between atoms: C_22  and  C_23
REMARK    9  A    between atoms: C_23  and  C_25
REMARK                            x       y       z     vdW  Elec       q    Type
REMARK                         _______ _______ _______ _____ _____    ______ ____
ROOT
ATOM      1  N   UNL     1       1.542   2.919  22.051  0.00  0.00    +0.000 N 
ATOM      2  C   UNL     1       2.314   3.513  21.079  0.00  0.00    +0.000 A 
ATOM      3  N   UNL     1       3.400   2.826  20.669  0.00  0.00    +0.000 NA
ATOM      4  C   UNL     1       4.116   3.380  19.682  0.00  0.00    +0.000 A 
ATOM      5  C   UNL     1       3.797   4.574  19.125  0.00  0.00    +0.000 A 
ATOM      6  C   UNL     1       2.703   5.215  19.665  0.00  0.00    +0.000 A 
ATOM      7  N   UNL     1       1.933   4.722  20.638  0.00  0.00    +0.000 NA
ATOM      8  N   UNL     1       2.589   6.450  19.015  0.00  0.00    +0.000 N 
ATOM      9  C   UNL     1       3.575   6.537  18.015  0.00  0.00    +0.000 A 
ATOM     10  O   UNL     1       3.766   7.460  17.243  0.00  0.00    +0.000 OA
ATOM     11  N   UNL     1       4.345   5.362  18.112  0.00  0.00    +0.000 N 
ATOM     12  H   UNL     1       2.061   2.223  22.567  0.00  0.00    +0.000 HD
ATOM     13  H   UNL     1       1.007   3.599  22.577  0.00  0.00    +0.000 HD
ENDROOT
BRANCH   8  14
ATOM     14  C1* UNL     1       1.611   7.465  19.254  0.00  0.00    +0.000 C 
ATOM     15  O4* UNL     1       1.421   8.293  18.089  0.00  0.00    +0.000 OA
ATOM     16  C4* UNL     1       1.071   9.629  18.536  0.00  0.00    +0.000 C 
ATOM     17  C3* UNL     1       1.023   9.595  20.063  0.00  0.00    +0.000 C 
ATOM     18  C2* UNL     1       1.920   8.416  20.413  0.00  0.00    +0.000 C 
BRANCH  17  19
ATOM     19  O3* UNL     1      -0.306   9.321  20.551  0.00  0.00    +0.000 OA
ATOM     20  H3* UNL     1      -0.279   8.557  21.156  0.00  0.00    +0.000 HD
ENDBRANCH  17  19
BRANCH  18  21
ATOM     21  O2* UNL     1       1.602   7.893  21.699  0.00  0.00    +0.000 OA
ATOM     22  H2* UNL     1       2.450   7.811  22.182  0.00  0.00    +0.000 HD
ENDBRANCH  18  21
BRANCH  16  23
ATOM     23  C5* UNL     1       2.102  10.632  18.014  0.00  0.00    +0.000 C 
BRANCH  23  24
ATOM     24  O5* UNL     1       1.605  11.962  18.137  0.00  0.00    +0.000 OA
ATOM     25  H5* UNL     1       1.894  12.426  17.328  0.00  0.00    +0.000 HD
ENDBRANCH  23  24
ENDBRANCH  16  23
ENDBRANCH   8  14
BRANCH   4  26
ATOM     26  O   UNL     1       5.216   2.671  19.323  0.00  0.00    +0.000 OA
ATOM     27  H   UNL     1       4.907   1.761  19.488  0.00  0.00    +0.000 HD
ENDBRANCH   4  26
BRANCH  11  28
ATOM     28  C   UNL     1       5.431   4.994  17.236  0.00  0.00    +0.000 C 
BRANCH  28  29
ATOM     29  C   UNL     1       6.807   5.148  17.886  0.00  0.00    +0.000 C 
ATOM     30  O   UNL     1       7.440   4.208  18.362  0.00  0.00    +0.000 OA
BRANCH  29  31
ATOM     31  C   UNL     1       7.391   6.534  17.965  0.00  0.00    +0.000 A 
ATOM     32  C   UNL     1       7.054   7.541  17.050  0.00  0.00    +0.000 A 
ATOM     33  C   UNL     1       7.559   8.838  17.204  0.00  0.00    +0.000 A 
ATOM     34  C   UNL     1       8.409   9.133  18.267  0.00  0.00    +0.000 A 
ATOM     35 CL   UNL     1       8.983  10.740  18.481  0.00  0.00    +0.000 Cl
ATOM     36  C   UNL     1       8.784   8.135  19.162  0.00  0.00    +0.000 A 
ATOM     37  C   UNL     1       8.278   6.838  19.011  0.00  0.00    +0.000 A 
ENDBRANCH  29  31
ENDBRANCH  28  29
ENDBRANCH  11  28
TORSDOF 9
ENDMDL
MODEL 2
REMARK VINA RESULT:      -7.2      5.718      8.623
REMARK  Name = 
REMARK  9 active torsions:
REMARK  status: ('A' for Active; 'I' for Inactive)
REMARK    1  A    between atoms: C_4  and  O_5
REMARK    2  A    between atoms: N_9  and  C1*_10
REMARK    3  A    between atoms: C4*_12  and  C5*_13
REMARK    4  A    between atoms: C5*_13  and  O5*_14
REMARK    5  A    between atoms: C3*_15  and  O3*_16
REMARK    6  A    between atoms: C2*_17  and  O2*_18
REMARK    7  A    between atoms: N_21  and  C_22
REMARK    8  A    between atoms: C_22  and  C_23
REMARK    9  A    between atoms: C_23  and  C_25
REMARK                            x       y       z     vdW  Elec       q    Type
REMARK                         _______ _______ _______ _____ _____    ______ ____
ROOT
ATOM      1  N   UNL     1      -5.161  12.410  17.752  0.00  0.00    +0.000 N 
ATOM      2  C   UNL     1      -4.023  12.105  18.462  0.00  0.00    +0.000 A 
ATOM      3  N   UNL     1      -3.059  11.436  17.796  0.00  0.00    +0.000 NA
ATOM      4  C   UNL     1      -1.929  11.191  18.474  0.00  0.00    +0.000 A 
ATOM      5  C   UNL     1      -1.751  11.568  19.764  0.00  0.00    +0.000 A 
ATOM      6  C   UNL     1      -2.827  12.188  20.362  0.00  0.00    +0.000 A 
ATOM      7  N   UNL     1      -3.978  12.479  19.750  0.00  0.00    +0.000 NA
ATOM      8  N   UNL     1      -2.475  12.423  21.697  0.00  0.00    +0.000 N 
ATOM      9  C   UNL     1      -1.145  12.011  21.902  0.00  0.00    +0.000 A 
ATOM     10  O   UNL     1      -0.501  12.077  22.933  0.00  0.00    +0.000 OA
ATOM     11  N   UNL     1      -0.710  11.451  20.685  0.00  0.00    +0.000 N 
ATOM     12  H   UNL     1      -5.272  11.810  16.946  0.00  0.00    +0.000 HD
ATOM     13  H   UNL     1      -5.961  12.543  18.357  0.00  0.00    +0.000 HD
ENDROOT
BRANCH   8  14
ATOM     14  C1* UNL     1      -3.281  13.031  22.708  0.00  0.00    +0.000 C 
ATOM     15  O4* UNL     1      -4.403  12.194  23.057  0.00  0.00    +0.000 OA
ATOM     16  C4* UNL     1      -5.505  13.055  23.446  0.00  0.00    +0.000 C 
ATOM     17  C3* UNL     1      -5.007  14.496  23.349  0.00  0.00    +0.000 C 
ATOM     18  C2* UNL     1      -3.860  14.402  22.352  0.00  0.00    +0.000 C 
BRANCH  17  19
ATOM     19  O3* UNL     1      -4.483  14.967  24.608  0.00  0.00    +0.000 OA
ATOM     20  H3* UNL     1      -5.206  15.351  25.137  0.00  0.00    +0.000 HD
ENDBRANCH  17  19
BRANCH  18  21
ATOM     21  O2* UNL     1      -2.947  15.483  22.516  0.00  0.00    +0.000 OA
ATOM     22  H2* UNL     1      -2.461  15.566  21.670  0.00  0.00    +0.000 HD
ENDBRANCH  18  21
BRANCH  16  23
ATOM     23  C5* UNL     1      -6.705  12.798  22.531  0.00  0.00    +0.000 C 
BRANCH  23  24
ATOM     24  O5* UNL     1      -6.370  11.834  21.534  0.00  0.00    +0.000 OA
ATOM     25  H5* UNL     1      -5.402  11.900  21.421  0.00  0.00    +0.000 HD
ENDBRANCH  23  24
ENDBRANCH  16  23
ENDBRANCH   8  14
BRANCH   4  26
ATOM     26  O   UNL     1      -1.000  10.490  17.776  0.00  0.00    +0.000 OA
ATOM     27  H   UNL     1      -0.953  11.017  16.957  0.00  0.00    +0.000 HD
ENDBRANCH   4  26
BRANCH  11  28
ATOM     28  C   UNL     1       0.618  10.956  20.415  0.00  0.00    +0.000 C 
BRANCH  28  29
ATOM     29  C   UNL     1       0.824   9.508  20.865  0.00  0.00    +0.000 C 
ATOM     30  O   UNL     1       0.458   9.080  21.957  0.00  0.00    +0.000 OA
BRANCH  29  31
ATOM     31  C   UNL     1       1.537   8.578  19.919  0.00  0.00    +0.000 A 
ATOM     32  C   UNL     1       1.898   8.962  18.621  0.00  0.00    +0.000 A 
ATOM     33  C   UNL     1       2.630   8.095  17.801  0.00  0.00    +0.000 A 
ATOM     34  C   UNL     1       2.995   6.835  18.271  0.00  0.00    +0.000 A 
ATOM     35 CL   UNL     1       3.939   5.795  17.278  0.00  0.00    +0.000 Cl
ATOM     36  C   UNL     1       2.612   6.423  19.543  0.00  0.00    +0.000 A 
ATOM     37  C   UNL     1       1.883   7.290  20.366  0.00  0.00    +0.000 A 
ENDBRANCH  29  31
ENDBRANCH  28  29
ENDBRANCH  11  28
TORSDOF 9
ENDMDL
MODEL 3
REMARK VINA RESULT:      -7.1      3.237      6.829
REMARK  Name = 
REMARK  9 active torsions:
REMARK  status: ('A' for Active; 'I' for Inactive)
REMARK    1  A    between atoms: C_4  and  O_5
REMARK    2  A    between atoms: N_9  and  C1*_10
REMARK    3  A    between atoms: C4*_12  and  C5*_13
REMARK    4  A    between atoms: C5*_13  and  O5*_14
REMARK    5  A    between atoms: C3*_15  and  O3*_16
REMARK    6  A    between atoms: C2*_17  and  O2*_18
REMARK    7  A    between atoms: N_21  and  C_22
REMARK    8  A    between atoms: C_22  and  C_23
REMARK    9  A    between atoms: C_23  and  C_25
REMARK                            x       y       z     vdW  Elec       q    Type
REMARK                         _______ _______ _______ _____ _____    ______ ____
ROOT
ATOM      1  N   UNL     1       3.881   0.890  18.034  0.00  0.00    +0.000 N 
ATOM      2  C   UNL     1       3.654   2.227  18.271  0.00  0.00    +0.000 A 
ATOM      3  N   UNL     1       2.737   2.525  19.213  0.00  0.00    +0.000 NA
ATOM      4  C   UNL     1       2.561   3.826  19.481  0.00  0.00    +0.000 A 
ATOM      5  C   UNL     1       3.241   4.806  18.837  0.00  0.00    +0.000 A 
ATOM      6  C   UNL     1       4.106   4.387  17.850  0.00  0.00    +0.000 A 
ATOM      7  N   UNL     1       4.346   3.112  17.535  0.00  0.00    +0.000 NA
ATOM      8  N   UNL     1       4.644   5.537  17.260  0.00  0.00    +0.000 N 
ATOM      9  C   UNL     1       4.162   6.672  17.940  0.00  0.00    +0.000 A 
ATOM     10  O   UNL     1       4.428   7.839  17.713  0.00  0.00    +0.000 OA
ATOM     11  N   UNL     1       3.261   6.200  18.913  0.00  0.00    +0.000 N 
ATOM     12  H   UNL     1       3.106   0.319  18.343  0.00  0.00    +0.000 HD
ATOM     13  H   UNL     1       4.251   0.727  17.107  0.00  0.00    +0.000 HD
ENDROOT
BRANCH   8  14
ATOM     14  C1* UNL     1       5.577   5.599  16.179  0.00  0.00    +0.000 C 
ATOM     15  O4* UNL     1       4.919   5.414  14.908  0.00  0.00    +0.000 OA
ATOM     16  C4* UNL     1       5.852   4.763  14.007  0.00  0.00    +0.000 C 
ATOM     17  C3* UNL     1       7.159   4.567  14.775  0.00  0.00    +0.000 C 
ATOM     18  C2* UNL     1       6.711   4.573  16.230  0.00  0.00    +0.000 C 
BRANCH  17  19
ATOM     19  O3* UNL     1       8.069   5.667  14.571  0.00  0.00    +0.000 OA
ATOM     20  H3* UNL     1       8.446   5.940  15.428  0.00  0.00    +0.000 HD
ENDBRANCH  17  19
BRANCH  18  21
ATOM     21  O2* UNL     1       7.784   4.929  17.096  0.00  0.00    +0.000 OA
ATOM     22  H2* UNL     1       8.318   5.595  16.616  0.00  0.00    +0.000 HD
ENDBRANCH  18  21
BRANCH  16  23
ATOM     23  C5* UNL     1       5.261   3.435  13.528  0.00  0.00    +0.000 C 
BRANCH  23  24
ATOM     24  O5* UNL     1       6.124   2.827  12.569  0.00  0.00    +0.000 OA
ATOM     25  H5* UNL     1       5.715   3.004  11.700  0.00  0.00    +0.000 HD
ENDBRANCH  23  24
ENDBRANCH  16  23
ENDBRANCH   8  14
BRANCH   4  26
ATOM     26  O   UNL     1       1.608   4.081  20.413  0.00  0.00    +0.000 OA
ATOM     27  H   UNL     1       0.877   3.527  20.081  0.00  0.00    +0.000 HD
ENDBRANCH   4  26
BRANCH  11  28
ATOM     28  C   UNL     1       2.575   7.012  19.888  0.00  0.00    +0.000 C 
BRANCH  28  29
ATOM     29  C   UNL     1       1.692   8.091  19.259  0.00  0.00    +0.000 C 
ATOM     30  O   UNL     1       1.565   8.240  18.046  0.00  0.00    +0.000 OA
BRANCH  29  31
ATOM     31  C   UNL     1       0.967   9.029  20.188  0.00  0.00    +0.000 A 
ATOM     32  C   UNL     1       0.265  10.148  19.723  0.00  0.00    +0.000 A 
ATOM     33  C   UNL     1      -0.461  10.951  20.612  0.00  0.00    +0.000 A 
ATOM     34  C   UNL     1      -0.480  10.645  21.971  0.00  0.00    +0.000 A 
ATOM     35 CL   UNL     1      -1.416  11.604  23.049  0.00  0.00    +0.000 Cl
ATOM     36  C   UNL     1       0.244   9.559  22.455  0.00  0.00    +0.000 A 
ATOM     37  C   UNL     1       0.968   8.753  21.567  0.00  0.00    +0.000 A 
ENDBRANCH  29  31
ENDBRANCH  28  29
ENDBRANCH  11  28
TORSDOF 9
ENDMDL
MODEL 4
REMARK VINA RESULT:      -7.1      0.654      1.076
REMARK  Name = 
REMARK  9 active torsions:
REMARK  status: ('A' for Active; 'I' for Inactive)
REMARK    1  A    between atoms: C_4  and  O_5
REMARK    2  A    between atoms: N_9  and  C1*_10
REMARK    3  A    between atoms: C4*_12  and  C5*_13
REMARK    4  A    between atoms: C5*_13  and  O5*_14
REMARK    5  A    between atoms: C3*_15  and  O3*_16
REMARK    6  A    between atoms: C2*_17  and  O2*_18
REMARK    7  A    between atoms: N_21  and  C_22
REMARK    8  A    between atoms: C_22  and  C_23
REMARK    9  A    between atoms: C_23  and  C_25
REMARK                            x       y       z     vdW  Elec       q    Type
REMARK                         _______ _______ _______ _____ _____    ______ ____
ROOT
ATOM      1  N   UNL     1       1.806   3.047  22.066  0.00  0.00    +0.000 N 
ATOM      2  C   UNL     1       2.401   3.689  21.004  0.00  0.00    +0.000 A 
ATOM      3  N   UNL     1       3.397   3.026  20.381  0.00  0.00    +0.000 NA
ATOM      4  C   UNL     1       3.934   3.630  19.312  0.00  0.00    +0.000 A 
ATOM      5  C   UNL     1       3.529   4.848  18.876  0.00  0.00    +0.000 A 
ATOM      6  C   UNL     1       2.549   5.459  19.628  0.00  0.00    +0.000 A 
ATOM      7  N   UNL     1       1.955   4.917  20.695  0.00  0.00    +0.000 NA
ATOM      8  N   UNL     1       2.329   6.723  19.068  0.00  0.00    +0.000 N 
ATOM      9  C   UNL     1       3.128   6.862  17.917  0.00  0.00    +0.000 A 
ATOM     10  O   UNL     1       3.188   7.821  17.169  0.00  0.00    +0.000 OA
ATOM     11  N   UNL     1       3.898   5.686  17.823  0.00  0.00    +0.000 N 
ATOM     12  H   UNL     1       2.403   2.328  22.451  0.00  0.00    +0.000 HD
ATOM     13  H   UNL     1       1.373   3.698  22.708  0.00  0.00    +0.000 HD
ENDROOT
BRANCH   8  14
ATOM     14  C1* UNL     1       1.413   7.722  19.520  0.00  0.00    +0.000 C 
ATOM     15  O4* UNL     1       1.098   8.658  18.469  0.00  0.00    +0.000 OA
ATOM     16  C4* UNL     1       0.837   9.949  19.077  0.00  0.00    +0.000 C 
ATOM     17  C3* UNL     1       0.979   9.774  20.588  0.00  0.00    +0.000 C 
ATOM     18  C2* UNL     1       1.886   8.557  20.713  0.00  0.00    +0.000 C 
BRANCH  17  19
ATOM     19  O3* UNL     1      -0.284   9.470  21.213  0.00  0.00    +0.000 OA
ATOM     20  H3* UNL     1      -0.976  10.051  20.847  0.00  0.00    +0.000 HD
ENDBRANCH  17  19
BRANCH  18  21
ATOM     21  O2* UNL     1       1.720   7.920  21.975  0.00  0.00    +0.000 OA
ATOM     22  H2* UNL     1       1.094   7.181  21.833  0.00  0.00    +0.000 HD
ENDBRANCH  18  21
BRANCH  16  23
ATOM     23  C5* UNL     1       1.818  10.985  18.523  0.00  0.00    +0.000 C 
BRANCH  23  24
ATOM     24  O5* UNL     1       2.328  10.558  17.262  0.00  0.00    +0.000 OA
ATOM     25  H5* UNL     1       1.547  10.449  16.686  0.00  0.00    +0.000 HD
ENDBRANCH  23  24
ENDBRANCH  16  23
ENDBRANCH   8  14
BRANCH   4  26
ATOM     26  O   UNL     1       4.952   2.943  18.735  0.00  0.00    +0.000 OA
ATOM     27  H   UNL     1       4.465   2.424  18.068  0.00  0.00    +0.000 HD
ENDBRANCH   4  26
BRANCH  11  28
ATOM     28  C   UNL     1       4.814   5.364  16.756  0.00  0.00    +0.000 C 
BRANCH  28  29
ATOM     29  C   UNL     1       6.260   5.209  17.231  0.00  0.00    +0.000 C 
ATOM     30  O   UNL     1       6.851   4.132  17.260  0.00  0.00    +0.000 OA
BRANCH  29  31
ATOM     31  C   UNL     1       6.974   6.445  17.711  0.00  0.00    +0.000 A 
ATOM     32  C   UNL     1       7.877   6.419  18.781  0.00  0.00    +0.000 A 
ATOM     33  C   UNL     1       8.580   7.575  19.146  0.00  0.00    +0.000 A 
ATOM     34  C   UNL     1       8.374   8.763  18.449  0.00  0.00    +0.000 A 
ATOM     35 CL   UNL     1       9.279  10.166  18.867  0.00  0.00    +0.000 Cl
ATOM     36  C   UNL     1       7.452   8.816  17.408  0.00  0.00    +0.000 A 
ATOM     37  C   UNL     1       6.751   7.660  17.040  0.00  0.00    +0.000 A 
ENDBRANCH  29  31
ENDBRANCH  28  29
ENDBRANCH  11  28
TORSDOF 9
ENDMDL
MODEL 5
REMARK VINA RESULT:      -7.1      3.183      5.323
REMARK  Name = 
REMARK  9 active torsions:
REMARK  status: ('A' for Active; 'I' for Inactive)
REMARK    1  A    between atoms: C_4  and  O_5
REMARK    2  A    between atoms: N_9  and  C1*_10
REMARK    3  A    between atoms: C4*_12  and  C5*_13
REMARK    4  A    between atoms: C5*_13  and  O5*_14
REMARK    5  A    between atoms: C3*_15  and  O3*_16
REMARK    6  A    between atoms: C2*_17  and  O2*_18
REMARK    7  A    between atoms: N_21  and  C_22
REMARK    8  A    between atoms: C_22  and  C_23
REMARK    9  A    between atoms: C_23  and  C_25
REMARK                            x       y       z     vdW  Elec       q    Type
REMARK                         _______ _______ _______ _____ _____    ______ ____
ROOT
ATOM      1  N   UNL     1       5.142   3.425  12.977  0.00  0.00    +0.000 N 
ATOM      2  C   UNL     1       5.586   3.997  14.147  0.00  0.00    +0.000 A 
ATOM      3  N   UNL     1       6.732   4.705  14.074  0.00  0.00    +0.000 NA
ATOM      4  C   UNL     1       7.131   5.308  15.203  0.00  0.00    +0.000 A 
ATOM      5  C   UNL     1       6.447   5.207  16.369  0.00  0.00    +0.000 A 
ATOM      6  C   UNL     1       5.326   4.407  16.341  0.00  0.00    +0.000 A 
ATOM      7  N   UNL     1       4.858   3.786  15.255  0.00  0.00    +0.000 NA
ATOM      8  N   UNL     1       4.814   4.371  17.643  0.00  0.00    +0.000 N 
ATOM      9  C   UNL     1       5.583   5.217  18.464  0.00  0.00    +0.000 A 
ATOM     10  O   UNL     1       5.422   5.444  19.649  0.00  0.00    +0.000 OA
ATOM     11  N   UNL     1       6.623   5.716  17.656  0.00  0.00    +0.000 N 
ATOM     12  H   UNL     1       5.889   3.321  12.304  0.00  0.00    +0.000 HD
ATOM     13  H   UNL     1       4.543   2.627  13.148  0.00  0.00    +0.000 HD
ENDROOT
BRANCH   8  14
ATOM     14  C1* UNL     1       3.666   3.654  18.101  0.00  0.00    +0.000 C 
ATOM     15  O4* UNL     1       2.634   4.553  18.556  0.00  0.00    +0.000 OA
ATOM     16  C4* UNL     1       1.897   3.895  19.619  0.00  0.00    +0.000 C 
ATOM     17  C3* UNL     1       2.508   2.505  19.798  0.00  0.00    +0.000 C 
ATOM     18  C2* UNL     1       3.918   2.672  19.248  0.00  0.00    +0.000 C 
BRANCH  17  19
ATOM     19  O3* UNL     1       1.822   1.513  19.007  0.00  0.00    +0.000 OA
ATOM     20  H3* UNL     1       1.820   0.663  19.484  0.00  0.00    +0.000 HD
ENDBRANCH  17  19
BRANCH  18  21
ATOM     21  O2* UNL     1       4.460   1.421  18.838  0.00  0.00    +0.000 OA
ATOM     22  H2* UNL     1       5.308   1.619  18.390  0.00  0.00    +0.000 HD
ENDBRANCH  18  21
BRANCH  16  23
ATOM     23  C5* UNL     1       1.986   4.731  20.898  0.00  0.00    +0.000 C 
BRANCH  23  24
ATOM     24  O5* UNL     1       2.641   5.970  20.635  0.00  0.00    +0.000 OA
ATOM     25  H5* UNL     1       3.166   6.164  21.435  0.00  0.00    +0.000 HD
ENDBRANCH  23  24
ENDBRANCH  16  23
ENDBRANCH   8  14
BRANCH   4  26
ATOM     26  O   UNL     1       8.303   5.982  15.091  0.00  0.00    +0.000 OA
ATOM     27  H   UNL     1       8.934   5.299  15.385  0.00  0.00    +0.000 HD
ENDBRANCH   4  26
BRANCH  11  28
ATOM     28  C   UNL     1       7.619   6.676  18.066  0.00  0.00    +0.000 C 
BRANCH  28  29
ATOM     29  C   UNL     1       7.347   8.087  17.541  0.00  0.00    +0.000 C 
ATOM     30  O   UNL     1       6.526   8.336  16.661  0.00  0.00    +0.000 OA
BRANCH  29  31
ATOM     31  C   UNL     1       8.154   9.217  18.124  0.00  0.00    +0.000 A 
ATOM     32  C   UNL     1       8.955   9.055  19.263  0.00  0.00    +0.000 A 
ATOM     33  C   UNL     1       9.751  10.109  19.727  0.00  0.00    +0.000 A 
ATOM     34  C   UNL     1       9.743  11.333  19.062  0.00  0.00    +0.000 A 
ATOM     35 CL   UNL     1      10.763  12.607  19.606  0.00  0.00    +0.000 Cl
ATOM     36  C   UNL     1       8.924  11.523  17.953  0.00  0.00    +0.000 A 
ATOM     37  C   UNL     1       8.130  10.469  17.485  0.00  0.00    +0.000 A 
ENDBRANCH  29  31
ENDBRANCH  28  29
ENDBRANCH  11  28
TORSDOF 9
ENDMDL
MODEL 6
REMARK VINA RESULT:      -7.0      5.388      8.190
REMARK  Name = 
REMARK  9 active torsions:
REMARK  status: ('A' for Active; 'I' for Inactive)
REMARK    1  A    between atoms: C_4  and  O_5
REMARK    2  A    between atoms: N_9  and  C1*_10
REMARK    3  A    between atoms: C4*_12  and  C5*_13
REMARK    4  A    between atoms: C5*_13  and  O5*_14
REMARK    5  A    between atoms: C3*_15  and  O3*_16
REMARK    6  A    between atoms: C2*_17  and  O2*_18
REMARK    7  A    between atoms: N_21  and  C_22
REMARK    8  A    between atoms: C_22  and  C_23
REMARK    9  A    between atoms: C_23  and  C_25
REMARK                            x       y       z     vdW  Elec       q    Type
REMARK                         _______ _______ _______ _____ _____    ______ ____
ROOT
ATOM      1  N   UNL     1      -5.052  12.132  17.474  0.00  0.00    +0.000 N 
ATOM      2  C   UNL     1      -3.887  11.882  18.163  0.00  0.00    +0.000 A 
ATOM      3  N   UNL     1      -2.994  11.070  17.562  0.00  0.00    +0.000 NA
ATOM      4  C   UNL     1      -1.838  10.875  18.211  0.00  0.00    +0.000 A 
ATOM      5  C   UNL     1      -1.568  11.436  19.415  0.00  0.00    +0.000 A 
ATOM      6  C   UNL     1      -2.578  12.196  19.963  0.00  0.00    +0.000 A 
ATOM      7  N   UNL     1      -3.750  12.448  19.373  0.00  0.00    +0.000 NA
ATOM      8  N   UNL     1      -2.139  12.615  21.224  0.00  0.00    +0.000 N 
ATOM      9  C   UNL     1      -0.818  12.172  21.422  0.00  0.00    +0.000 A 
ATOM     10  O   UNL     1      -0.112  12.363  22.396  0.00  0.00    +0.000 OA
ATOM     11  N   UNL     1      -0.480  11.409  20.288  0.00  0.00    +0.000 N 
ATOM     12  H   UNL     1      -5.235  11.422  16.779  0.00  0.00    +0.000 HD
ATOM     13  H   UNL     1      -5.808  12.398  18.092  0.00  0.00    +0.000 HD
ENDROOT
BRANCH   8  14
ATOM     14  C1* UNL     1      -2.857  13.413  22.168  0.00  0.00    +0.000 C 
ATOM     15  O4* UNL     1      -2.290  14.736  22.274  0.00  0.00    +0.000 OA
ATOM     16  C4* UNL     1      -2.494  15.208  23.630  0.00  0.00    +0.000 C 
ATOM     17  C3* UNL     1      -3.253  14.113  24.380  0.00  0.00    +0.000 C 
ATOM     18  C2* UNL     1      -2.915  12.854  23.591  0.00  0.00    +0.000 C 
BRANCH  17  19
ATOM     19  O3* UNL     1      -4.679  14.318  24.327  0.00  0.00    +0.000 OA
ATOM     20  H3* UNL     1      -4.883  15.014  23.677  0.00  0.00    +0.000 HD
ENDBRANCH  17  19
BRANCH  18  21
ATOM     21  O2* UNL     1      -3.903  11.847  23.784  0.00  0.00    +0.000 OA
ATOM     22  H2* UNL     1      -3.525  11.206  24.421  0.00  0.00    +0.000 HD
ENDBRANCH  18  21
BRANCH  16  23
ATOM     23  C5* UNL     1      -1.141  15.516  24.276  0.00  0.00    +0.000 C 
BRANCH  23  24
ATOM     24  O5* UNL     1      -0.079  15.064  23.439  0.00  0.00    +0.000 OA
ATOM     25  H5* UNL     1       0.500  15.840  23.310  0.00  0.00    +0.000 HD
ENDBRANCH  23  24
ENDBRANCH  16  23
ENDBRANCH   8  14
BRANCH   4  26
ATOM     26  O   UNL     1      -0.982  10.027  17.585  0.00  0.00    +0.000 OA
ATOM     27  H   UNL     1      -0.961   9.288  18.221  0.00  0.00    +0.000 HD
ENDBRANCH   4  26
BRANCH  11  28
ATOM     28  C   UNL     1       0.807  10.810  20.030  0.00  0.00    +0.000 C 
BRANCH  28  29
ATOM     29  C   UNL     1       0.907   9.365  20.521  0.00  0.00    +0.000 C 
ATOM     30  O   UNL     1       0.420   8.973  21.579  0.00  0.00    +0.000 OA
BRANCH  29  31
ATOM     31  C   UNL     1       1.669   8.388  19.664  0.00  0.00    +0.000 A 
ATOM     32  C   UNL     1       2.095   8.704  18.367  0.00  0.00    +0.000 A 
ATOM     33  C   UNL     1       2.869   7.796  17.633  0.00  0.00    +0.000 A 
ATOM     34  C   UNL     1       3.212   6.565  18.188  0.00  0.00    +0.000 A 
ATOM     35 CL   UNL     1       4.206   5.477  17.302  0.00  0.00    +0.000 Cl
ATOM     36  C   UNL     1       2.765   6.220  19.460  0.00  0.00    +0.000 A 
ATOM     37  C   UNL     1       1.993   7.128  20.197  0.00  0.00    +0.000 A 
ENDBRANCH  29  31
ENDBRANCH  28  29
ENDBRANCH  11  28
TORSDOF 9
ENDMDL
MODEL 7
REMARK VINA RESULT:      -7.0      2.907      6.550
REMARK  Name = 
REMARK  9 active torsions:
REMARK  status: ('A' for Active; 'I' for Inactive)
REMARK    1  A    between atoms: C_4  and  O_5
REMARK    2  A    between atoms: N_9  and  C1*_10
REMARK    3  A    between atoms: C4*_12  and  C5*_13
REMARK    4  A    between atoms: C5*_13  and  O5*_14
REMARK    5  A    between atoms: C3*_15  and  O3*_16
REMARK    6  A    between atoms: C2*_17  and  O2*_18
REMARK    7  A    between atoms: N_21  and  C_22
REMARK    8  A    between atoms: C_22  and  C_23
REMARK    9  A    between atoms: C_23  and  C_25
REMARK                            x       y       z     vdW  Elec       q    Type
REMARK                         _______ _______ _______ _____ _____    ______ ____
ROOT
ATOM      1  N   UNL     1       5.007   1.487  20.174  0.00  0.00    +0.000 N 
ATOM      2  C   UNL     1       4.242   2.624  20.042  0.00  0.00    +0.000 A 
ATOM      3  N   UNL     1       3.081   2.652  20.728  0.00  0.00    +0.000 NA
ATOM      4  C   UNL     1       2.368   3.784  20.642  0.00  0.00    +0.000 A 
ATOM      5  C   UNL     1       2.762   4.845  19.896  0.00  0.00    +0.000 A 
ATOM      6  C   UNL     1       3.933   4.679  19.189  0.00  0.00    +0.000 A 
ATOM      7  N   UNL     1       4.705   3.591  19.233  0.00  0.00    +0.000 NA
ATOM      8  N   UNL     1       4.122   5.841  18.431  0.00  0.00    +0.000 N 
ATOM      9  C   UNL     1       3.099   6.759  18.732  0.00  0.00    +0.000 A 
ATOM     10  O   UNL     1       2.951   7.879  18.275  0.00  0.00    +0.000 OA
ATOM     11  N   UNL     1       2.235   6.111  19.635  0.00  0.00    +0.000 N 
ATOM     12  H   UNL     1       4.455   0.700  20.485  0.00  0.00    +0.000 HD
ATOM     13  H   UNL     1       5.625   1.352  19.384  0.00  0.00    +0.000 HD
ENDROOT
BRANCH   8  14
ATOM     14  C1* UNL     1       5.195   6.119  17.529  0.00  0.00    +0.000 C 
ATOM     15  O4* UNL     1       4.890   5.662  16.195  0.00  0.00    +0.000 OA
ATOM     16  C4* UNL     1       6.133   5.275  15.554  0.00  0.00    +0.000 C 
ATOM     17  C3* UNL     1       7.258   5.539  16.554  0.00  0.00    +0.000 C 
ATOM     18  C2* UNL     1       6.544   5.498  17.899  0.00  0.00    +0.000 C 
BRANCH  17  19
ATOM     19  O3* UNL     1       7.831   6.851  16.380  0.00  0.00    +0.000 OA
ATOM     20  H3* UNL     1       7.891   7.297  17.245  0.00  0.00    +0.000 HD
ENDBRANCH  17  19
BRANCH  18  21
ATOM     21  O2* UNL     1       7.269   6.221  18.888  0.00  0.00    +0.000 OA
ATOM     22  H2* UNL     1       8.144   5.788  18.963  0.00  0.00    +0.000 HD
ENDBRANCH  18  21
BRANCH  16  23
ATOM     23  C5* UNL     1       6.062   3.802  15.144  0.00  0.00    +0.000 C 
BRANCH  23  24
ATOM     24  O5* UNL     1       6.365   3.659  13.758  0.00  0.00    +0.000 OA
ATOM     25  H5* UNL     1       5.892   2.855  13.468  0.00  0.00    +0.000 HD
ENDBRANCH  23  24
ENDBRANCH  16  23
ENDBRANCH   8  14
BRANCH   4  26
ATOM     26  O   UNL     1       1.194   3.757  21.322  0.00  0.00    +0.000 OA
ATOM     27  H   UNL     1       0.562   3.643  20.588  0.00  0.00    +0.000 HD
ENDBRANCH   4  26
BRANCH  11  28
ATOM     28  C   UNL     1       1.079   6.701  20.265  0.00  0.00    +0.000 C 
BRANCH  28  29
ATOM     29  C   UNL     1       1.397   8.000  21.008  0.00  0.00    +0.000 C 
ATOM     30  O   UNL     1       2.270   8.093  21.867  0.00  0.00    +0.000 OA
BRANCH  29  31
ATOM     31  C   UNL     1       0.568   9.213  20.677  0.00  0.00    +0.000 A 
ATOM     32  C   UNL     1       0.241   9.560  19.360  0.00  0.00    +0.000 A 
ATOM     33  C   UNL     1      -0.598  10.651  19.099  0.00  0.00    +0.000 A 
ATOM     34  C   UNL     1      -1.104  11.407  20.154  0.00  0.00    +0.000 A 
ATOM     35 CL   UNL     1      -2.176  12.713  19.830  0.00  0.00    +0.000 Cl
ATOM     36  C   UNL     1      -0.759  11.100  21.467  0.00  0.00    +0.000 A 
ATOM     37  C   UNL     1       0.077  10.007  21.729  0.00  0.00    +0.000 A 
ENDBRANCH  29  31
ENDBRANCH  28  29
ENDBRANCH  11  28
TORSDOF 9
ENDMDL
MODEL 8
REMARK VINA RESULT:      -7.0      5.308      8.161
REMARK  Name = 
REMARK  9 active torsions:
REMARK  status: ('A' for Active; 'I' for Inactive)
REMARK    1  A    between atoms: C_4  and  O_5
REMARK    2  A    between atoms: N_9  and  C1*_10
REMARK    3  A    between atoms: C4*_12  and  C5*_13
REMARK    4  A    between atoms: C5*_13  and  O5*_14
REMARK    5  A    between atoms: C3*_15  and  O3*_16
REMARK    6  A    between atoms: C2*_17  and  O2*_18
REMARK    7  A    between atoms: N_21  and  C_22
REMARK    8  A    between atoms: C_22  and  C_23
REMARK    9  A    between atoms: C_23  and  C_25
REMARK                            x       y       z     vdW  Elec       q    Type
REMARK                         _______ _______ _______ _____ _____    ______ ____
ROOT
ATOM      1  N   UNL     1      -4.767  11.992  17.170  0.00  0.00    +0.000 N 
ATOM      2  C   UNL     1      -3.645  11.683  17.903  0.00  0.00    +0.000 A 
ATOM      3  N   UNL     1      -2.730  10.895  17.301  0.00  0.00    +0.000 NA
ATOM      4  C   UNL     1      -1.613  10.642  17.997  0.00  0.00    +0.000 A 
ATOM      5  C   UNL     1      -1.402  11.125  19.246  0.00  0.00    +0.000 A 
ATOM      6  C   UNL     1      -2.432  11.866  19.786  0.00  0.00    +0.000 A 
ATOM      7  N   UNL     1      -3.567  12.171  19.152  0.00  0.00    +0.000 NA
ATOM      8  N   UNL     1      -2.056  12.200  21.092  0.00  0.00    +0.000 N 
ATOM      9  C   UNL     1      -0.753  11.725  21.333  0.00  0.00    +0.000 A 
ATOM     10  O   UNL     1      -0.099  11.845  22.353  0.00  0.00    +0.000 OA
ATOM     11  N   UNL     1      -0.363  11.028  20.173  0.00  0.00    +0.000 N 
ATOM     12  H   UNL     1      -4.921  11.329  16.423  0.00  0.00    +0.000 HD
ATOM     13  H   UNL     1      -5.552  12.232  17.761  0.00  0.00    +0.000 HD
ENDROOT
BRANCH   8  14
ATOM     14  C1* UNL     1      -2.814  12.950  22.044  0.00  0.00    +0.000 C 
ATOM     15  O4* UNL     1      -4.028  12.260  22.407  0.00  0.00    +0.000 OA
ATOM     16  C4* UNL     1      -5.039  13.254  22.714  0.00  0.00    +0.000 C 
ATOM     17  C3* UNL     1      -4.386  14.626  22.551  0.00  0.00    +0.000 C 
ATOM     18  C2* UNL     1      -3.233  14.351  21.594  0.00  0.00    +0.000 C 
BRANCH  17  19
ATOM     19  O3* UNL     1      -3.843  15.113  23.795  0.00  0.00    +0.000 OA
ATOM     20  H3* UNL     1      -4.490  15.703  24.223  0.00  0.00    +0.000 HD
ENDBRANCH  17  19
BRANCH  18  21
ATOM     21  O2* UNL     1      -2.213  15.336  21.723  0.00  0.00    +0.000 OA
ATOM     22  H2* UNL     1      -2.143  15.541  22.678  0.00  0.00    +0.000 HD
ENDBRANCH  18  21
BRANCH  16  23
ATOM     23  C5* UNL     1      -6.238  13.073  21.781  0.00  0.00    +0.000 C 
BRANCH  23  24
ATOM     24  O5* UNL     1      -6.338  11.713  21.363  0.00  0.00    +0.000 OA
ATOM     25  H5* UNL     1      -6.556  11.748  20.411  0.00  0.00    +0.000 HD
ENDBRANCH  23  24
ENDBRANCH  16  23
ENDBRANCH   8  14
BRANCH   4  26
ATOM     26  O   UNL     1      -0.736   9.822  17.367  0.00  0.00    +0.000 OA
ATOM     27  H   UNL     1      -0.739  10.207  16.471  0.00  0.00    +0.000 HD
ENDBRANCH   4  26
BRANCH  11  28
ATOM     28  C   UNL     1       0.928  10.426  19.948  0.00  0.00    +0.000 C 
BRANCH  28  29
ATOM     29  C   UNL     1       0.985   8.953  20.356  0.00  0.00    +0.000 C 
ATOM     30  O   UNL     1       0.347   8.485  21.297  0.00  0.00    +0.000 OA
BRANCH  29  31
ATOM     31  C   UNL     1       1.894   8.045  19.571  0.00  0.00    +0.000 A 
ATOM     32  C   UNL     1       2.272   6.779  20.036  0.00  0.00    +0.000 A 
ATOM     33  C   UNL     1       3.055   5.934  19.240  0.00  0.00    +0.000 A 
ATOM     34  C   UNL     1       3.472   6.354  17.979  0.00  0.00    +0.000 A 
ATOM     35 CL   UNL     1       4.389   5.291  16.985  0.00  0.00    +0.000 Cl
ATOM     36  C   UNL     1       3.138   7.624  17.517  0.00  0.00    +0.000 A 
ATOM     37  C   UNL     1       2.352   8.469  18.311  0.00  0.00    +0.000 A 
ENDBRANCH  29  31
ENDBRANCH  28  29
ENDBRANCH  11  28
TORSDOF 9
ENDMDL
MODEL 9
REMARK VINA RESULT:      -6.9      3.440      5.442
REMARK  Name = 
REMARK  9 active torsions:
REMARK  status: ('A' for Active; 'I' for Inactive)
REMARK    1  A    between atoms: C_4  and  O_5
REMARK    2  A    between atoms: N_9  and  C1*_10
REMARK    3  A    between atoms: C4*_12  and  C5*_13
REMARK    4  A    between atoms: C5*_13  and  O5*_14
REMARK    5  A    between atoms: C3*_15  and  O3*_16
REMARK    6  A    between atoms: C2*_17  and  O2*_18
REMARK    7  A    between atoms: N_21  and  C_22
REMARK    8  A    between atoms: C_22  and  C_23
REMARK    9  A    between atoms: C_23  and  C_25
REMARK                            x       y       z     vdW  Elec       q    Type
REMARK                         _______ _______ _______ _____ _____    ______ ____
ROOT
ATOM      1  N   UNL     1       5.170   3.439  12.983  0.00  0.00    +0.000 N 
ATOM      2  C   UNL     1       5.588   4.009  14.164  0.00  0.00    +0.000 A 
ATOM      3  N   UNL     1       6.740   4.710  14.120  0.00  0.00    +0.000 NA
ATOM      4  C   UNL     1       7.114   5.311  15.258  0.00  0.00    +0.000 A 
ATOM      5  C   UNL     1       6.401   5.216  16.407  0.00  0.00    +0.000 A 
ATOM      6  C   UNL     1       5.275   4.422  16.351  0.00  0.00    +0.000 A 
ATOM      7  N   UNL     1       4.831   3.803  15.254  0.00  0.00    +0.000 NA
ATOM      8  N   UNL     1       4.731   4.389  17.640  0.00  0.00    +0.000 N 
ATOM      9  C   UNL     1       5.485   5.231  18.479  0.00  0.00    +0.000 A 
ATOM     10  O   UNL     1       5.295   5.460  19.660  0.00  0.00    +0.000 OA
ATOM     11  N   UNL     1       6.548   5.724  17.698  0.00  0.00    +0.000 N 
ATOM     12  H   UNL     1       5.933   3.331  12.329  0.00  0.00    +0.000 HD
ATOM     13  H   UNL     1       4.563   2.645  13.140  0.00  0.00    +0.000 HD
ENDROOT
BRANCH   8  14
ATOM     14  C1* UNL     1       3.568   3.678  18.069  0.00  0.00    +0.000 C 
ATOM     15  O4* UNL     1       2.664   4.541  18.790  0.00  0.00    +0.000 OA
ATOM     16  C4* UNL     1       1.968   3.740  19.780  0.00  0.00    +0.000 C 
ATOM     17  C3* UNL     1       2.465   2.303  19.628  0.00  0.00    +0.000 C 
ATOM     18  C2* UNL     1       3.831   2.474  18.977  0.00  0.00    +0.000 C 
BRANCH  17  19
ATOM     19  O3* UNL     1       1.626   1.538  18.739  0.00  0.00    +0.000 OA
ATOM     20  H3* UNL     1       0.856   1.198  19.231  0.00  0.00    +0.000 HD
ENDBRANCH  17  19
BRANCH  18  21
ATOM     21  O2* UNL     1       4.221   1.294  18.284  0.00  0.00    +0.000 OA
ATOM     22  H2* UNL     1       3.468   1.048  17.708  0.00  0.00    +0.000 HD
ENDBRANCH  18  21
BRANCH  16  23
ATOM     23  C5* UNL     1       2.241   4.299  21.178  0.00  0.00    +0.000 C 
BRANCH  23  24
ATOM     24  O5* UNL     1       2.277   3.243  22.135  0.00  0.00    +0.000 OA
ATOM     25  H5* UNL     1       1.474   2.712  21.969  0.00  0.00    +0.000 HD
ENDBRANCH  23  24
ENDBRANCH  16  23
ENDBRANCH   8  14
BRANCH   4  26
ATOM     26  O   UNL     1       8.292   5.979  15.175  0.00  0.00    +0.000 OA
ATOM     27  H   UNL     1       8.660   5.597  14.357  0.00  0.00    +0.000 HD
ENDBRANCH   4  26
BRANCH  11  28
ATOM     28  C   UNL     1       7.538   6.678  18.132  0.00  0.00    +0.000 C 
BRANCH  28  29
ATOM     29  C   UNL     1       7.333   8.072  17.536  0.00  0.00    +0.000 C 
ATOM     30  O   UNL     1       6.533   8.312  16.635  0.00  0.00    +0.000 OA
BRANCH  29  31
ATOM     31  C   UNL     1       8.181   9.194  18.076  0.00  0.00    +0.000 A 
ATOM     32  C   UNL     1       8.238  10.451  17.461  0.00  0.00    +0.000 A 
ATOM     33  C   UNL     1       8.976  11.492  18.038  0.00  0.00    +0.000 A 
ATOM     34  C   UNL     1       9.669  11.277  19.227  0.00  0.00    +0.000 A 
ATOM     35 CL   UNL     1      10.531  12.574  19.958  0.00  0.00    +0.000 Cl
ATOM     36  C   UNL     1       9.654  10.024  19.831  0.00  0.00    +0.000 A 
ATOM     37  C   UNL     1       8.913   8.983  19.257  0.00  0.00    +0.000 A 
ENDBRANCH  29  31
ENDBRANCH  28  29
ENDBRANCH  11  28
TORSDOF 9
ENDMDL
