MODEL 1
REMARK VINA RESULT:      -7.7      0.000      0.000
REMARK  Name = 
REMARK  9 active torsions:
REMARK  status: ('A' for Active; 'I' for Inactive)
REMARK    1  A    between atoms: C_1  and  O_2
REMARK    2  A    between atoms: O_2  and  C_3
REMARK    3  A    between atoms: N_8  and  C_9
REMARK    4  A    between atoms: C_11  and  O_12
REMARK    5  A    between atoms: O_12  and  C_13
REMARK    6  A    between atoms: C_13  and  C_14
REMARK    7  A    between atoms: C_19  and  C_20
REMARK    8  A    between atoms: C_26  and  O_27
REMARK    9  A    between atoms: O_27  and  C_28
REMARK                            x       y       z     vdW  Elec       q    Type
REMARK                         _______ _______ _______ _____ _____    ______ ____
ROOT
ATOM      1  C   UNL     1       2.074   7.216  19.104  0.00  0.00    +0.000 A 
ATOM      2  C   UNL     1       1.912   8.514  18.676  0.00  0.00    +0.000 A 
ATOM      3  C   UNL     1       1.314   9.317  19.706  0.00  0.00    +0.000 A 
ATOM      4  C   UNL     1       1.195   8.625  20.904  0.00  0.00    +0.000 A 
ATOM      5  S   UNL     1       1.618   6.982  20.710  0.00  0.00    +0.000 S 
ENDROOT
BRANCH   1  11
ATOM      6  C   UNL     1       6.049   5.167  16.350  0.00  0.00    +0.000 A 
ATOM      7  C   UNL     1       4.947   4.314  16.527  0.00  0.00    +0.000 A 
ATOM      8  C   UNL     1       3.824   4.748  17.231  0.00  0.00    +0.000 A 
ATOM      9  N   UNL     1       2.739   4.027  17.623  0.00  0.00    +0.000 NA
ATOM     10  C   UNL     1       2.050   4.862  18.355  0.00  0.00    +0.000 A 
ATOM     11  N   UNL     1       2.595   6.131  18.405  0.00  0.00    +0.000 N 
ATOM     12  C   UNL     1       3.776   6.059  17.679  0.00  0.00    +0.000 A 
ATOM     13  C   UNL     1       4.832   6.958  17.445  0.00  0.00    +0.000 A 
ATOM     14  C   UNL     1       5.972   6.505  16.761  0.00  0.00    +0.000 A 
BRANCH   6  16
ATOM     15  C   UNL     1       7.293   4.732  14.416  0.00  0.00    +0.000 C 
ATOM     16  O   UNL     1       7.228   4.668  15.849  0.00  0.00    +0.000 OA
ENDBRANCH   6  16
BRANCH  14  17
ATOM     17  O   UNL     1       6.937   7.474  16.665  0.00  0.00    +0.000 OA
ATOM     18  C   UNL     1       7.759   7.687  17.808  0.00  0.00    +0.000 C 
ENDBRANCH  14  17
ENDBRANCH   1  11
BRANCH   4  19
ATOM     19  C   UNL     1       0.791   9.044  22.233  0.00  0.00    +0.000 C 
ATOM     20  N   UNL     1      -0.512   8.819  22.566  0.00  0.00    +0.000 N 
ATOM     21  O   UNL     1       1.518   9.590  23.059  0.00  0.00    +0.000 OA
ATOM     22  H   UNL     1      -1.124   8.292  21.958  0.00  0.00    +0.000 HD
ATOM     23  H   UNL     1      -0.809   9.083  23.493  0.00  0.00    +0.000 HD
ENDBRANCH   4  19
BRANCH   3  24
ATOM     24  O   UNL     1       0.904  10.613  19.648  0.00  0.00    +0.000 OA
BRANCH  24  25
ATOM     25  C   UNL     1       0.186  10.995  18.475  0.00  0.00    +0.000 C 
BRANCH  25  26
ATOM     26  C   UNL     1      -1.232  10.417  18.564  0.00  0.00    +0.000 C 
ATOM     27  C   UNL     1      -1.756   9.866  17.244  0.00  0.00    +0.000 C 
ATOM     28  C   UNL     1      -3.245  10.082  17.353  0.00  0.00    +0.000 C 
ATOM     29  C   UNL     1      -3.353  11.327  18.206  0.00  0.00    +0.000 C 
ATOM     30  O   UNL     1      -2.157  11.429  18.990  0.00  0.00    +0.000 OA
ENDBRANCH  25  26
ENDBRANCH  24  25
ENDBRANCH   3  24
TORSDOF 7
ENDMDL
MODEL 2
REMARK VINA RESULT:      -7.6      2.570      3.501
REMARK  Name = 
REMARK  9 active torsions:
REMARK  status: ('A' for Active; 'I' for Inactive)
REMARK    1  A    between atoms: C_1  and  O_2
REMARK    2  A    between atoms: O_2  and  C_3
REMARK    3  A    between atoms: N_8  and  C_9
REMARK    4  A    between atoms: C_11  and  O_12
REMARK    5  A    between atoms: O_12  and  C_13
REMARK    6  A    between atoms: C_13  and  C_14
REMARK    7  A    between atoms: C_19  and  C_20
REMARK    8  A    between atoms: C_26  and  O_27
REMARK    9  A    between atoms: O_27  and  C_28
REMARK                            x       y       z     vdW  Elec       q    Type
REMARK                         _______ _______ _______ _____ _____    ______ ____
ROOT
ATOM      1  C   UNL     1       1.513   8.462  19.518  0.00  0.00    +0.000 A 
ATOM      2  C   UNL     1       0.814   9.552  19.054  0.00  0.00    +0.000 A 
ATOM      3  C   UNL     1       0.069  10.167  20.117  0.00  0.00    +0.000 A 
ATOM      4  C   UNL     1       0.363   9.605  21.352  0.00  0.00    +0.000 A 
ATOM      5  S   UNL     1       1.367   8.235  21.181  0.00  0.00    +0.000 S 
ENDROOT
BRANCH   1  11
ATOM      6  C   UNL     1       2.767   3.516  18.273  0.00  0.00    +0.000 A 
ATOM      7  C   UNL     1       3.560   4.501  17.662  0.00  0.00    +0.000 A 
ATOM      8  C   UNL     1       3.333   5.852  17.923  0.00  0.00    +0.000 A 
ATOM      9  N   UNL     1       3.894   6.937  17.323  0.00  0.00    +0.000 NA
ATOM     10  C   UNL     1       3.250   7.952  17.836  0.00  0.00    +0.000 A 
ATOM     11  N   UNL     1       2.334   7.591  18.806  0.00  0.00    +0.000 N 
ATOM     12  C   UNL     1       2.371   6.204  18.857  0.00  0.00    +0.000 A 
ATOM     13  C   UNL     1       1.618   5.235  19.542  0.00  0.00    +0.000 A 
ATOM     14  C   UNL     1       1.831   3.877  19.253  0.00  0.00    +0.000 A 
BRANCH   6  16
ATOM     15  C   UNL     1       3.775   1.434  18.628  0.00  0.00    +0.000 C 
ATOM     16  O   UNL     1       2.850   2.210  17.851  0.00  0.00    +0.000 OA
ENDBRANCH   6  16
BRANCH  14  17
ATOM     17  O   UNL     1       0.983   3.059  19.952  0.00  0.00    +0.000 OA
ATOM     18  C   UNL     1       1.332   2.764  21.302  0.00  0.00    +0.000 C 
ENDBRANCH  14  17
ENDBRANCH   1  11
BRANCH   4  19
ATOM     19  C   UNL     1      -0.021   9.970  22.703  0.00  0.00    +0.000 C 
ATOM     20  N   UNL     1      -1.093  10.807  22.820  0.00  0.00    +0.000 N 
ATOM     21  O   UNL     1       0.546   9.602  23.729  0.00  0.00    +0.000 OA
ATOM     22  H   UNL     1      -1.646  11.063  22.015  0.00  0.00    +0.000 HD
ATOM     23  H   UNL     1      -1.390  11.056  23.751  0.00  0.00    +0.000 HD
ENDBRANCH   4  19
BRANCH   3  24
ATOM     24  O   UNL     1      -0.815  11.199  20.054  0.00  0.00    +0.000 OA
BRANCH  24  25
ATOM     25  C   UNL     1      -1.141  11.670  18.747  0.00  0.00    +0.000 C 
BRANCH  25  26
ATOM     26  C   UNL     1      -2.334  10.861  18.222  0.00  0.00    +0.000 C 
ATOM     27  C   UNL     1      -2.061  10.146  16.904  0.00  0.00    +0.000 C 
ATOM     28  C   UNL     1      -3.421  10.107  16.252  0.00  0.00    +0.000 C 
ATOM     29  C   UNL     1      -4.088  11.364  16.765  0.00  0.00    +0.000 C 
ATOM     30  O   UNL     1      -3.463  11.720  18.004  0.00  0.00    +0.000 OA
ENDBRANCH  25  26
ENDBRANCH  24  25
ENDBRANCH   3  24
TORSDOF 7
ENDMDL
MODEL 3
REMARK VINA RESULT:      -7.5      2.637      8.325
REMARK  Name = 
REMARK  9 active torsions:
REMARK  status: ('A' for Active; 'I' for Inactive)
REMARK    1  A    between atoms: C_1  and  O_2
REMARK    2  A    between atoms: O_2  and  C_3
REMARK    3  A    between atoms: N_8  and  C_9
REMARK    4  A    between atoms: C_11  and  O_12
REMARK    5  A    between atoms: O_12  and  C_13
REMARK    6  A    between atoms: C_13  and  C_14
REMARK    7  A    between atoms: C_19  and  C_20
REMARK    8  A    between atoms: C_26  and  O_27
REMARK    9  A    between atoms: O_27  and  C_28
REMARK                            x       y       z     vdW  Elec       q    Type
REMARK                         _______ _______ _______ _____ _____    ______ ____
ROOT
ATOM      1  C   UNL     1       1.464   8.741  19.297  0.00  0.00    +0.000 A 
ATOM      2  C   UNL     1       1.643   7.697  20.175  0.00  0.00    +0.000 A 
ATOM      3  C   UNL     1       2.522   6.708  19.616  0.00  0.00    +0.000 A 
ATOM      4  C   UNL     1       3.079   7.126  18.415  0.00  0.00    +0.000 A 
ATOM      5  S   UNL     1       2.387   8.597  17.894  0.00  0.00    +0.000 S 
ENDROOT
BRANCH   1  11
ATOM      6  C   UNL     1      -2.784  11.469  17.847  0.00  0.00    +0.000 A 
ATOM      7  C   UNL     1      -2.006  12.070  18.850  0.00  0.00    +0.000 A 
ATOM      8  C   UNL     1      -0.845  11.449  19.311  0.00  0.00    +0.000 A 
ATOM      9  N   UNL     1      -0.055  11.802  20.361  0.00  0.00    +0.000 NA
ATOM     10  C   UNL     1       0.814  10.828  20.446  0.00  0.00    +0.000 A 
ATOM     11  N   UNL     1       0.678   9.880  19.451  0.00  0.00    +0.000 N 
ATOM     12  C   UNL     1      -0.426  10.273  18.707  0.00  0.00    +0.000 A 
ATOM     13  C   UNL     1      -1.144   9.692  17.647  0.00  0.00    +0.000 A 
ATOM     14  C   UNL     1      -2.327  10.308  17.208  0.00  0.00    +0.000 A 
BRANCH   6  16
ATOM     15  C   UNL     1      -4.942  11.873  18.655  0.00  0.00    +0.000 C 
ATOM     16  O   UNL     1      -4.029  11.972  17.552  0.00  0.00    +0.000 OA
ENDBRANCH   6  16
BRANCH  14  17
ATOM     17  O   UNL     1      -2.944   9.593  16.214  0.00  0.00    +0.000 OA
ATOM     18  C   UNL     1      -2.907  10.144  14.901  0.00  0.00    +0.000 C 
ENDBRANCH  14  17
ENDBRANCH   1  11
BRANCH   4  19
ATOM     19  C   UNL     1       4.105   6.549  17.566  0.00  0.00    +0.000 C 
ATOM     20  N   UNL     1       4.799   5.497  18.088  0.00  0.00    +0.000 N 
ATOM     21  O   UNL     1       4.400   6.940  16.440  0.00  0.00    +0.000 OA
ATOM     22  H   UNL     1       4.533   5.082  18.970  0.00  0.00    +0.000 HD
ATOM     23  H   UNL     1       5.502   5.067  17.507  0.00  0.00    +0.000 HD
ENDBRANCH   4  19
BRANCH   3  24
ATOM     24  O   UNL     1       2.872   5.494  20.121  0.00  0.00    +0.000 OA
BRANCH  24  25
ATOM     25  C   UNL     1       1.799   4.662  20.559  0.00  0.00    +0.000 C 
BRANCH  25  26
ATOM     26  C   UNL     1       1.822   3.366  19.738  0.00  0.00    +0.000 C 
ATOM     27  C   UNL     1       3.157   2.633  19.782  0.00  0.00    +0.000 C 
ATOM     28  C   UNL     1       3.208   1.941  18.443  0.00  0.00    +0.000 C 
ATOM     29  C   UNL     1       2.436   2.877  17.539  0.00  0.00    +0.000 C 
ATOM     30  O   UNL     1       1.543   3.643  18.358  0.00  0.00    +0.000 OA
ENDBRANCH  25  26
ENDBRANCH  24  25
ENDBRANCH   3  24
TORSDOF 7
ENDMDL
MODEL 4
REMARK VINA RESULT:      -7.4      2.487      3.539
REMARK  Name = 
REMARK  9 active torsions:
REMARK  status: ('A' for Active; 'I' for Inactive)
REMARK    1  A    between atoms: C_1  and  O_2
REMARK    2  A    between atoms: O_2  and  C_3
REMARK    3  A    between atoms: N_8  and  C_9
REMARK    4  A    between atoms: C_11  and  O_12
REMARK    5  A    between atoms: O_12  and  C_13
REMARK    6  A    between atoms: C_13  and  C_14
REMARK    7  A    between atoms: C_19  and  C_20
REMARK    8  A    between atoms: C_26  and  O_27
REMARK    9  A    between atoms: O_27  and  C_28
REMARK                            x       y       z     vdW  Elec       q    Type
REMARK                         _______ _______ _______ _____ _____    ______ ____
ROOT
ATOM      1  C   UNL     1       1.791   8.334  19.009  0.00  0.00    +0.000 A 
ATOM      2  C   UNL     1       1.198   9.435  18.437  0.00  0.00    +0.000 A 
ATOM      3  C   UNL     1       0.391  10.134  19.397  0.00  0.00    +0.000 A 
ATOM      4  C   UNL     1       0.537   9.615  20.677  0.00  0.00    +0.000 A 
ATOM      5  S   UNL     1       1.477   8.190  20.659  0.00  0.00    +0.000 S 
ENDROOT
BRANCH   1  11
ATOM      6  C   UNL     1       2.923   3.278  18.147  0.00  0.00    +0.000 A 
ATOM      7  C   UNL     1       3.803   4.194  17.548  0.00  0.00    +0.000 A 
ATOM      8  C   UNL     1       3.615   5.566  17.714  0.00  0.00    +0.000 A 
ATOM      9  N   UNL     1       4.268   6.591  17.102  0.00  0.00    +0.000 NA
ATOM     10  C   UNL     1       3.630   7.659  17.504  0.00  0.00    +0.000 A 
ATOM     11  N   UNL     1       2.626   7.391  18.416  0.00  0.00    +0.000 N 
ATOM     12  C   UNL     1       2.599   6.009  18.547  0.00  0.00    +0.000 A 
ATOM     13  C   UNL     1       1.753   5.112  19.221  0.00  0.00    +0.000 A 
ATOM     14  C   UNL     1       1.930   3.732  19.026  0.00  0.00    +0.000 A 
BRANCH   6  16
ATOM     15  C   UNL     1       3.864   1.197  18.654  0.00  0.00    +0.000 C 
ATOM     16  O   UNL     1       2.982   1.947  17.805  0.00  0.00    +0.000 OA
ENDBRANCH   6  16
BRANCH  14  17
ATOM     17  O   UNL     1       0.995   2.990  19.699  0.00  0.00    +0.000 OA
ATOM     18  C   UNL     1       1.217   2.772  21.089  0.00  0.00    +0.000 C 
ENDBRANCH  14  17
ENDBRANCH   1  11
BRANCH   4  19
ATOM     19  C   UNL     1       0.049  10.060  21.969  0.00  0.00    +0.000 C 
ATOM     20  N   UNL     1      -0.556   9.114  22.743  0.00  0.00    +0.000 N 
ATOM     21  O   UNL     1       0.123  11.207  22.402  0.00  0.00    +0.000 OA
ATOM     22  H   UNL     1      -0.560   8.141  22.471  0.00  0.00    +0.000 HD
ATOM     23  H   UNL     1      -0.884   9.397  23.654  0.00  0.00    +0.000 HD
ENDBRANCH   4  19
BRANCH   3  24
ATOM     24  O   UNL     1      -0.426  11.205  19.208  0.00  0.00    +0.000 OA
BRANCH  24  25
ATOM     25  C   UNL     1      -1.810  10.915  19.019  0.00  0.00    +0.000 C 
BRANCH  25  26
ATOM     26  C   UNL     1      -2.172  11.194  17.555  0.00  0.00    +0.000 C 
ATOM     27  C   UNL     1      -3.654  11.463  17.327  0.00  0.00    +0.000 C 
ATOM     28  C   UNL     1      -3.878  10.959  15.923  0.00  0.00    +0.000 C 
ATOM     29  C   UNL     1      -2.878   9.831  15.795  0.00  0.00    +0.000 C 
ATOM     30  O   UNL     1      -1.819  10.073  16.731  0.00  0.00    +0.000 OA
ENDBRANCH  25  26
ENDBRANCH  24  25
ENDBRANCH   3  24
TORSDOF 7
ENDMDL
MODEL 5
REMARK VINA RESULT:      -7.4      2.199      8.433
REMARK  Name = 
REMARK  9 active torsions:
REMARK  status: ('A' for Active; 'I' for Inactive)
REMARK    1  A    between atoms: C_1  and  O_2
REMARK    2  A    between atoms: O_2  and  C_3
REMARK    3  A    between atoms: N_8  and  C_9
REMARK    4  A    between atoms: C_11  and  O_12
REMARK    5  A    between atoms: O_12  and  C_13
REMARK    6  A    between atoms: C_13  and  C_14
REMARK    7  A    between atoms: C_19  and  C_20
REMARK    8  A    between atoms: C_26  and  O_27
REMARK    9  A    between atoms: O_27  and  C_28
REMARK                            x       y       z     vdW  Elec       q    Type
REMARK                         _______ _______ _______ _____ _____    ______ ____
ROOT
ATOM      1  C   UNL     1       1.453   8.806  19.077  0.00  0.00    +0.000 A 
ATOM      2  C   UNL     1       2.104   8.431  17.924  0.00  0.00    +0.000 A 
ATOM      3  C   UNL     1       2.863   7.230  18.138  0.00  0.00    +0.000 A 
ATOM      4  C   UNL     1       2.625   6.679  19.390  0.00  0.00    +0.000 A 
ATOM      5  S   UNL     1       1.659   7.714  20.344  0.00  0.00    +0.000 S 
ENDROOT
BRANCH   1  11
ATOM      6  C   UNL     1      -2.913  11.447  17.833  0.00  0.00    +0.000 A 
ATOM      7  C   UNL     1      -2.126  12.039  18.835  0.00  0.00    +0.000 A 
ATOM      8  C   UNL     1      -0.935  11.439  19.244  0.00  0.00    +0.000 A 
ATOM      9  N   UNL     1      -0.128  11.781  20.284  0.00  0.00    +0.000 NA
ATOM     10  C   UNL     1       0.771  10.832  20.314  0.00  0.00    +0.000 A 
ATOM     11  N   UNL     1       0.637   9.914  19.290  0.00  0.00    +0.000 N 
ATOM     12  C   UNL     1      -0.498  10.297  18.590  0.00  0.00    +0.000 A 
ATOM     13  C   UNL     1      -1.226   9.730  17.530  0.00  0.00    +0.000 A 
ATOM     14  C   UNL     1      -2.439  10.323  17.143  0.00  0.00    +0.000 A 
BRANCH   6  16
ATOM     15  C   UNL     1      -5.188  11.214  18.326  0.00  0.00    +0.000 C 
ATOM     16  O   UNL     1      -4.180  11.921  17.588  0.00  0.00    +0.000 OA
ENDBRANCH   6  16
BRANCH  14  17
ATOM     17  O   UNL     1      -3.062   9.623  16.142  0.00  0.00    +0.000 OA
ATOM     18  C   UNL     1      -2.951  10.145  14.821  0.00  0.00    +0.000 C 
ENDBRANCH  14  17
ENDBRANCH   1  11
BRANCH   4  19
ATOM     19  C   UNL     1       3.040   5.428  19.997  0.00  0.00    +0.000 C 
ATOM     20  N   UNL     1       4.244   4.931  19.591  0.00  0.00    +0.000 N 
ATOM     21  O   UNL     1       2.393   4.788  20.822  0.00  0.00    +0.000 OA
ATOM     22  H   UNL     1       4.852   5.464  18.986  0.00  0.00    +0.000 HD
ATOM     23  H   UNL     1       4.562   4.073  20.016  0.00  0.00    +0.000 HD
ENDBRANCH   4  19
BRANCH   3  24
ATOM     24  O   UNL     1       3.713   6.594  17.286  0.00  0.00    +0.000 OA
BRANCH  24  25
ATOM     25  C   UNL     1       4.985   7.211  17.090  0.00  0.00    +0.000 C 
BRANCH  25  26
ATOM     26  C   UNL     1       5.868   6.256  16.277  0.00  0.00    +0.000 C 
ATOM     27  C   UNL     1       5.169   4.964  15.873  0.00  0.00    +0.000 C 
ATOM     28  C   UNL     1       6.302   3.969  15.816  0.00  0.00    +0.000 C 
ATOM     29  C   UNL     1       7.265   4.480  16.865  0.00  0.00    +0.000 C 
ATOM     30  O   UNL     1       7.030   5.884  17.033  0.00  0.00    +0.000 OA
ENDBRANCH  25  26
ENDBRANCH  24  25
ENDBRANCH   3  24
TORSDOF 7
ENDMDL
MODEL 6
REMARK VINA RESULT:      -7.3      2.537      8.010
REMARK  Name = 
REMARK  9 active torsions:
REMARK  status: ('A' for Active; 'I' for Inactive)
REMARK    1  A    between atoms: C_1  and  O_2
REMARK    2  A    between atoms: O_2  and  C_3
REMARK    3  A    between atoms: N_8  and  C_9
REMARK    4  A    between atoms: C_11  and  O_12
REMARK    5  A    between atoms: O_12  and  C_13
REMARK    6  A    between atoms: C_13  and  C_14
REMARK    7  A    between atoms: C_19  and  C_20
REMARK    8  A    between atoms: C_26  and  O_27
REMARK    9  A    between atoms: O_27  and  C_28
REMARK                            x       y       z     vdW  Elec       q    Type
REMARK                         _______ _______ _______ _____ _____    ______ ____
ROOT
ATOM      1  C   UNL     1       2.348   6.796  19.323  0.00  0.00    +0.000 A 
ATOM      2  C   UNL     1       3.275   5.950  18.759  0.00  0.00    +0.000 A 
ATOM      3  C   UNL     1       3.318   4.700  19.465  0.00  0.00    +0.000 A 
ATOM      4  C   UNL     1       2.320   4.609  20.425  0.00  0.00    +0.000 A 
ATOM      5  S   UNL     1       1.488   6.091  20.590  0.00  0.00    +0.000 S 
ENDROOT
BRANCH   1  11
ATOM      6  C   UNL     1       0.556  11.530  20.724  0.00  0.00    +0.000 A 
ATOM      7  C   UNL     1       0.891  11.400  19.366  0.00  0.00    +0.000 A 
ATOM      8  C   UNL     1       1.367  10.186  18.869  0.00  0.00    +0.000 A 
ATOM      9  N   UNL     1       1.872   9.916  17.635  0.00  0.00    +0.000 NA
ATOM     10  C   UNL     1       2.291   8.681  17.728  0.00  0.00    +0.000 A 
ATOM     11  N   UNL     1       2.019   8.096  18.950  0.00  0.00    +0.000 N 
ATOM     12  C   UNL     1       1.424   9.089  19.716  0.00  0.00    +0.000 A 
ATOM     13  C   UNL     1       1.019   9.172  21.059  0.00  0.00    +0.000 A 
ATOM     14  C   UNL     1       0.569  10.405  21.560  0.00  0.00    +0.000 A 
BRANCH   6  16
ATOM     15  C   UNL     1       1.287  13.747  20.883  0.00  0.00    +0.000 C 
ATOM     16  O   UNL     1       0.297  12.774  21.249  0.00  0.00    +0.000 OA
ENDBRANCH   6  16
BRANCH  14  17
ATOM     17  O   UNL     1       0.269  10.343  22.896  0.00  0.00    +0.000 OA
ATOM     18  C   UNL     1      -1.104  10.460  23.259  0.00  0.00    +0.000 C 
ENDBRANCH  14  17
ENDBRANCH   1  11
BRANCH   4  19
ATOM     19  C   UNL     1       1.883   3.517  21.274  0.00  0.00    +0.000 C 
ATOM     20  N   UNL     1       0.735   2.883  20.899  0.00  0.00    +0.000 N 
ATOM     21  O   UNL     1       2.451   3.137  22.295  0.00  0.00    +0.000 OA
ATOM     22  H   UNL     1       0.282   3.098  20.022  0.00  0.00    +0.000 HD
ATOM     23  H   UNL     1       0.424   2.107  21.464  0.00  0.00    +0.000 HD
ENDBRANCH   4  19
BRANCH   3  24
ATOM     24  O   UNL     1       4.160   3.646  19.284  0.00  0.00    +0.000 OA
BRANCH  24  25
ATOM     25  C   UNL     1       4.359   3.224  17.936  0.00  0.00    +0.000 C 
BRANCH  25  26
ATOM     26  C   UNL     1       5.255   4.252  17.231  0.00  0.00    +0.000 C 
ATOM     27  C   UNL     1       5.727   3.813  15.851  0.00  0.00    +0.000 C 
ATOM     28  C   UNL     1       7.063   4.499  15.715  0.00  0.00    +0.000 C 
ATOM     29  C   UNL     1       7.568   4.559  17.141  0.00  0.00    +0.000 C 
ATOM     30  O   UNL     1       6.431   4.508  18.012  0.00  0.00    +0.000 OA
ENDBRANCH  25  26
ENDBRANCH  24  25
ENDBRANCH   3  24
TORSDOF 7
ENDMDL
MODEL 7
REMARK VINA RESULT:      -7.3      1.237      1.615
REMARK  Name = 
REMARK  9 active torsions:
REMARK  status: ('A' for Active; 'I' for Inactive)
REMARK    1  A    between atoms: C_1  and  O_2
REMARK    2  A    between atoms: O_2  and  C_3
REMARK    3  A    between atoms: N_8  and  C_9
REMARK    4  A    between atoms: C_11  and  O_12
REMARK    5  A    between atoms: O_12  and  C_13
REMARK    6  A    between atoms: C_13  and  C_14
REMARK    7  A    between atoms: C_19  and  C_20
REMARK    8  A    between atoms: C_26  and  O_27
REMARK    9  A    between atoms: O_27  and  C_28
REMARK                            x       y       z     vdW  Elec       q    Type
REMARK                         _______ _______ _______ _____ _____    ______ ____
ROOT
ATOM      1  C   UNL     1       2.087   7.247  18.950  0.00  0.00    +0.000 A 
ATOM      2  C   UNL     1       1.799   8.495  18.449  0.00  0.00    +0.000 A 
ATOM      3  C   UNL     1       1.230   9.333  19.467  0.00  0.00    +0.000 A 
ATOM      4  C   UNL     1       1.258   8.727  20.716  0.00  0.00    +0.000 A 
ATOM      5  S   UNL     1       1.781   7.106  20.601  0.00  0.00    +0.000 S 
ENDROOT
BRANCH   1  11
ATOM      6  C   UNL     1       6.141   5.139  16.360  0.00  0.00    +0.000 A 
ATOM      7  C   UNL     1       5.031   4.293  16.516  0.00  0.00    +0.000 A 
ATOM      8  C   UNL     1       3.887   4.742  17.176  0.00  0.00    +0.000 A 
ATOM      9  N   UNL     1       2.788   4.031  17.544  0.00  0.00    +0.000 NA
ATOM     10  C   UNL     1       2.078   4.881  18.240  0.00  0.00    +0.000 A 
ATOM     11  N   UNL     1       2.626   6.149  18.286  0.00  0.00    +0.000 N 
ATOM     12  C   UNL     1       3.830   6.061  17.600  0.00  0.00    +0.000 A 
ATOM     13  C   UNL     1       4.896   6.952  17.386  0.00  0.00    +0.000 A 
ATOM     14  C   UNL     1       6.056   6.484  16.747  0.00  0.00    +0.000 A 
BRANCH   6  16
ATOM     15  C   UNL     1       7.455   4.689  14.477  0.00  0.00    +0.000 C 
ATOM     16  O   UNL     1       7.334   4.628  15.906  0.00  0.00    +0.000 OA
ENDBRANCH   6  16
BRANCH  14  17
ATOM     17  O   UNL     1       7.027   7.448  16.666  0.00  0.00    +0.000 OA
ATOM     18  C   UNL     1       7.804   7.687  17.836  0.00  0.00    +0.000 C 
ENDBRANCH  14  17
ENDBRANCH   1  11
BRANCH   4  19
ATOM     19  C   UNL     1       0.934   9.218  22.042  0.00  0.00    +0.000 C 
ATOM     20  N   UNL     1      -0.384   9.469  22.287  0.00  0.00    +0.000 N 
ATOM     21  O   UNL     1       1.745   9.435  22.939  0.00  0.00    +0.000 OA
ATOM     22  H   UNL     1      -1.097   9.222  21.615  0.00  0.00    +0.000 HD
ATOM     23  H   UNL     1      -0.635   9.791  23.210  0.00  0.00    +0.000 HD
ENDBRANCH   4  19
BRANCH   3  24
ATOM     24  O   UNL     1       0.726  10.592  19.354  0.00  0.00    +0.000 OA
BRANCH  24  25
ATOM     25  C   UNL     1      -0.568  10.701  18.763  0.00  0.00    +0.000 C 
BRANCH  25  26
ATOM     26  C   UNL     1      -1.268  11.935  19.348  0.00  0.00    +0.000 C 
ATOM     27  C   UNL     1      -0.677  13.258  18.879  0.00  0.00    +0.000 C 
ATOM     28  C   UNL     1      -0.934  14.177  20.047  0.00  0.00    +0.000 C 
ATOM     29  C   UNL     1      -0.877  13.247  21.239  0.00  0.00    +0.000 C 
ATOM     30  O   UNL     1      -1.184  11.924  20.780  0.00  0.00    +0.000 OA
ENDBRANCH  25  26
ENDBRANCH  24  25
ENDBRANCH   3  24
TORSDOF 7
ENDMDL
MODEL 8
REMARK VINA RESULT:      -7.3      2.415      8.033
REMARK  Name = 
REMARK  9 active torsions:
REMARK  status: ('A' for Active; 'I' for Inactive)
REMARK    1  A    between atoms: C_1  and  O_2
REMARK    2  A    between atoms: O_2  and  C_3
REMARK    3  A    between atoms: N_8  and  C_9
REMARK    4  A    between atoms: C_11  and  O_12
REMARK    5  A    between atoms: O_12  and  C_13
REMARK    6  A    between atoms: C_13  and  C_14
REMARK    7  A    between atoms: C_19  and  C_20
REMARK    8  A    between atoms: C_26  and  O_27
REMARK    9  A    between atoms: O_27  and  C_28
REMARK                            x       y       z     vdW  Elec       q    Type
REMARK                         _______ _______ _______ _____ _____    ______ ____
ROOT
ATOM      1  C   UNL     1       2.808   6.629  19.104  0.00  0.00    +0.000 A 
ATOM      2  C   UNL     1       4.073   6.212  18.760  0.00  0.00    +0.000 A 
ATOM      3  C   UNL     1       4.336   4.901  19.284  0.00  0.00    +0.000 A 
ATOM      4  C   UNL     1       3.208   4.336  19.863  0.00  0.00    +0.000 A 
ATOM      5  S   UNL     1       1.926   5.461  19.940  0.00  0.00    +0.000 S 
ENDROOT
BRANCH   1  11
ATOM      6  C   UNL     1       0.498  11.009  20.853  0.00  0.00    +0.000 A 
ATOM      7  C   UNL     1       0.578  10.898  19.455  0.00  0.00    +0.000 A 
ATOM      8  C   UNL     1       1.160   9.774  18.868  0.00  0.00    +0.000 A 
ATOM      9  N   UNL     1       1.454   9.559  17.558  0.00  0.00    +0.000 NA
ATOM     10  C   UNL     1       2.099   8.422  17.560  0.00  0.00    +0.000 A 
ATOM     11  N   UNL     1       2.182   7.837  18.808  0.00  0.00    +0.000 N 
ATOM     12  C   UNL     1       1.579   8.732  19.682  0.00  0.00    +0.000 A 
ATOM     13  C   UNL     1       1.437   8.783  21.079  0.00  0.00    +0.000 A 
ATOM     14  C   UNL     1       0.877   9.931  21.664  0.00  0.00    +0.000 A 
BRANCH   6  16
ATOM     15  C   UNL     1       0.963  13.296  21.019  0.00  0.00    +0.000 C 
ATOM     16  O   UNL     1       0.126  12.203  21.425  0.00  0.00    +0.000 OA
ENDBRANCH   6  16
BRANCH  14  17
ATOM     17  O   UNL     1       0.861   9.859  23.033  0.00  0.00    +0.000 OA
ATOM     18  C   UNL     1      -0.361   9.461  23.647  0.00  0.00    +0.000 C 
ENDBRANCH  14  17
ENDBRANCH   1  11
BRANCH   4  19
ATOM     19  C   UNL     1       2.947   3.009  20.391  0.00  0.00    +0.000 C 
ATOM     20  N   UNL     1       2.339   2.132  19.542  0.00  0.00    +0.000 N 
ATOM     21  O   UNL     1       3.212   2.631  21.529  0.00  0.00    +0.000 OA
ATOM     22  H   UNL     1       2.184   2.366  18.571  0.00  0.00    +0.000 HD
ATOM     23  H   UNL     1       2.167   1.197  19.881  0.00  0.00    +0.000 HD
ENDBRANCH   4  19
BRANCH   3  24
ATOM     24  O   UNL     1       5.492   4.183  19.248  0.00  0.00    +0.000 OA
BRANCH  24  25
ATOM     25  C   UNL     1       6.089   4.015  17.964  0.00  0.00    +0.000 C 
BRANCH  25  26
ATOM     26  C   UNL     1       7.282   4.974  17.853  0.00  0.00    +0.000 C 
ATOM     27  C   UNL     1       7.633   5.674  19.159  0.00  0.00    +0.000 C 
ATOM     28  C   UNL     1       8.206   6.990  18.695  0.00  0.00    +0.000 C 
ATOM     29  C   UNL     1       7.459   7.259  17.408  0.00  0.00    +0.000 C 
ATOM     30  O   UNL     1       7.009   6.002  16.889  0.00  0.00    +0.000 OA
ENDBRANCH  25  26
ENDBRANCH  24  25
ENDBRANCH   3  24
TORSDOF 7
ENDMDL
MODEL 9
REMARK VINA RESULT:      -7.2      2.107      8.263
REMARK  Name = 
REMARK  9 active torsions:
REMARK  status: ('A' for Active; 'I' for Inactive)
REMARK    1  A    between atoms: C_1  and  O_2
REMARK    2  A    between atoms: O_2  and  C_3
REMARK    3  A    between atoms: N_8  and  C_9
REMARK    4  A    between atoms: C_11  and  O_12
REMARK    5  A    between atoms: O_12  and  C_13
REMARK    6  A    between atoms: C_13  and  C_14
REMARK    7  A    between atoms: C_19  and  C_20
REMARK    8  A    between atoms: C_26  and  O_27
REMARK    9  A    between atoms: O_27  and  C_28
REMARK                            x       y       z     vdW  Elec       q    Type
REMARK                         _______ _______ _______ _____ _____    ______ ____
ROOT
ATOM      1  C   UNL     1       1.877   7.578  19.962  0.00  0.00    +0.000 A 
ATOM      2  C   UNL     1       2.551   7.564  18.763  0.00  0.00    +0.000 A 
ATOM      3  C   UNL     1       2.999   6.237  18.448  0.00  0.00    +0.000 A 
ATOM      4  C   UNL     1       2.513   5.296  19.345  0.00  0.00    +0.000 A 
ATOM      5  S   UNL     1       1.700   6.048  20.645  0.00  0.00    +0.000 S 
ENDROOT
BRANCH   1  11
ATOM      6  C   UNL     1      -1.449  11.641  19.841  0.00  0.00    +0.000 A 
ATOM      7  C   UNL     1      -0.762  11.472  21.055  0.00  0.00    +0.000 A 
ATOM      8  C   UNL     1       0.159  10.435  21.206  0.00  0.00    +0.000 A 
ATOM      9  N   UNL     1       0.802  10.033  22.335  0.00  0.00    +0.000 NA
ATOM     10  C   UNL     1       1.441   8.952  21.968  0.00  0.00    +0.000 A 
ATOM     11  N   UNL     1       1.307   8.662  20.624  0.00  0.00    +0.000 N 
ATOM     12  C   UNL     1       0.447   9.627  20.117  0.00  0.00    +0.000 A 
ATOM     13  C   UNL     1      -0.167   9.825  18.868  0.00  0.00    +0.000 A 
ATOM     14  C   UNL     1      -1.115  10.853  18.731  0.00  0.00    +0.000 A 
BRANCH   6  16
ATOM     15  C   UNL     1      -2.795  13.143  21.028  0.00  0.00    +0.000 C 
ATOM     16  O   UNL     1      -2.503  12.520  19.768  0.00  0.00    +0.000 OA
ENDBRANCH   6  16
BRANCH  14  17
ATOM     17  O   UNL     1      -1.670  10.882  17.478  0.00  0.00    +0.000 OA
ATOM     18  C   UNL     1      -2.704   9.941  17.204  0.00  0.00    +0.000 C 
ENDBRANCH  14  17
ENDBRANCH   1  11
BRANCH   4  19
ATOM     19  C   UNL     1       2.575   3.846  19.364  0.00  0.00    +0.000 C 
ATOM     20  N   UNL     1       3.806   3.293  19.165  0.00  0.00    +0.000 N 
ATOM     21  O   UNL     1       1.617   3.094  19.526  0.00  0.00    +0.000 OA
ATOM     22  H   UNL     1       4.636   3.867  19.118  0.00  0.00    +0.000 HD
ATOM     23  H   UNL     1       3.876   2.287  19.195  0.00  0.00    +0.000 HD
ENDBRANCH   4  19
BRANCH   3  24
ATOM     24  O   UNL     1       3.776   5.822  17.411  0.00  0.00    +0.000 OA
BRANCH  24  25
ATOM     25  C   UNL     1       4.642   6.802  16.840  0.00  0.00    +0.000 C 
BRANCH  25  26
ATOM     26  C   UNL     1       6.094   6.368  17.079  0.00  0.00    +0.000 C 
ATOM     27  C   UNL     1       6.327   5.721  18.439  0.00  0.00    +0.000 C 
ATOM     28  C   UNL     1       7.760   6.082  18.744  0.00  0.00    +0.000 C 
ATOM     29  C   UNL     1       7.935   7.419  18.058  0.00  0.00    +0.000 C 
ATOM     30  O   UNL     1       6.973   7.500  16.999  0.00  0.00    +0.000 OA
ENDBRANCH  25  26
ENDBRANCH  24  25
ENDBRANCH   3  24
TORSDOF 7
ENDMDL
