MODEL 1
REMARK VINA RESULT:      -7.4      0.000      0.000
REMARK  Name = 
REMARK  9 active torsions:
REMARK  status: ('A' for Active; 'I' for Inactive)
REMARK    1  A    between atoms: N_1  and  C_2
REMARK    2  A    between atoms: N_10  and  C_11
REMARK    3  A    between atoms: C_11  and  C_12
REMARK    4  A    between atoms: C_12  and  O_13
REMARK    5  A    between atoms: C_12  and  C_14
REMARK    6  A    between atoms: C_14  and  N_15
REMARK    7  A    between atoms: N_18  and  C_19
REMARK    8  A    between atoms: C_19  and  C_20
REMARK    9  A    between atoms: C_19  and  C_26
REMARK                            x       y       z     vdW  Elec       q    Type
REMARK                         _______ _______ _______ _____ _____    ______ ____
ROOT
ATOM      1  N   UNL     1       1.764   7.926  18.925  0.00  0.00    +0.000 NA
ATOM      2  C   UNL     1       2.700   8.243  17.823  0.00  0.00    +0.000 C 
ATOM      3  C   UNL     1       4.144   7.660  17.884  0.00  0.00    +0.000 C 
ATOM      4  N   UNL     1       4.267   6.255  18.351  0.00  0.00    +0.000 NA
ATOM      5  C   UNL     1       3.538   6.208  19.636  0.00  0.00    +0.000 C 
ATOM      6  C   UNL     1       2.058   6.612  19.533  0.00  0.00    +0.000 C 
ENDROOT
BRANCH   1   7
ATOM      7  C   UNL     1       1.512   9.000  19.909  0.00  0.00    +0.000 C 
BRANCH   7   8
ATOM      8  C   UNL     1       0.079   9.640  19.824  0.00  0.00    +0.000 C 
BRANCH   8   9
ATOM      9  O   UNL     1      -0.178  10.443  20.989  0.00  0.00    +0.000 OA
ATOM     10  H   UNL     1       0.469  10.210  21.677  0.00  0.00    +0.000 HD
ENDBRANCH   8   9
BRANCH   8  11
ATOM     11  C   UNL     1      -0.091  10.545  18.582  0.00  0.00    +0.000 C 
BRANCH  11  20
ATOM     12  C   UNL     1      -4.785  11.689  18.039  0.00  0.00    +0.000 A 
ATOM     13  N   UNL     1      -4.846  12.481  19.132  0.00  0.00    +0.000 NA
ATOM     14  C   UNL     1      -3.739  12.591  19.902  0.00  0.00    +0.000 A 
ATOM     15  N   UNL     1      -2.518  12.042  19.714  0.00  0.00    +0.000 NA
ATOM     16  C   UNL     1      -2.509  11.275  18.613  0.00  0.00    +0.000 A 
ATOM     17  C   UNL     1      -3.574  11.030  17.753  0.00  0.00    +0.000 A 
ATOM     18  N   UNL     1      -3.210  10.162  16.753  0.00  0.00    +0.000 NA
ATOM     19  C   UNL     1      -1.939   9.885  16.991  0.00  0.00    +0.000 A 
ATOM     20  N   UNL     1      -1.456  10.583  18.083  0.00  0.00    +0.000 N 
BRANCH  12  21
ATOM     21  N   UNL     1      -5.915  11.575  17.233  0.00  0.00    +0.000 N 
ATOM     22  H   UNL     1      -6.184  12.464  16.830  0.00  0.00    +0.000 HD
ATOM     23  H   UNL     1      -5.868  10.778  16.608  0.00  0.00    +0.000 HD
ENDBRANCH  12  21
ENDBRANCH  11  20
ENDBRANCH   8  11
ENDBRANCH   7   8
ENDBRANCH   1   7
BRANCH   4  24
ATOM     24  C   UNL     1       3.781   5.250  17.342  0.00  0.00    +0.000 C 
BRANCH  24  25
ATOM     25  C   UNL     1       4.914   4.872  16.367  0.00  0.00    +0.000 A 
ATOM     26  C   UNL     1       6.262   5.080  16.704  0.00  0.00    +0.000 A 
ATOM     27  C   UNL     1       7.280   4.855  15.775  0.00  0.00    +0.000 A 
ATOM     28  C   UNL     1       6.971   4.417  14.491  0.00  0.00    +0.000 A 
ATOM     29  C   UNL     1       5.642   4.174  14.145  0.00  0.00    +0.000 A 
ATOM     30  C   UNL     1       4.621   4.391  15.076  0.00  0.00    +0.000 A 
ENDBRANCH  24  25
BRANCH  24  31
ATOM     31  C   UNL     1       3.147   3.971  17.949  0.00  0.00    +0.000 A 
ATOM     32  C   UNL     1       1.749   3.802  17.962  0.00  0.00    +0.000 A 
ATOM     33  C   UNL     1       1.168   2.609  18.417  0.00  0.00    +0.000 A 
ATOM     34  C   UNL     1       1.973   1.565  18.867  0.00  0.00    +0.000 A 
ATOM     35  C   UNL     1       3.349   1.727  18.904  0.00  0.00    +0.000 A 
ATOM     36  C   UNL     1       3.934   2.916  18.451  0.00  0.00    +0.000 A 
ENDBRANCH  24  31
ENDBRANCH   4  24
TORSDOF 9
ENDMDL
MODEL 2
REMARK VINA RESULT:      -7.4      3.210      5.041
REMARK  Name = 
REMARK  9 active torsions:
REMARK  status: ('A' for Active; 'I' for Inactive)
REMARK    1  A    between atoms: N_1  and  C_2
REMARK    2  A    between atoms: N_10  and  C_11
REMARK    3  A    between atoms: C_11  and  C_12
REMARK    4  A    between atoms: C_12  and  O_13
REMARK    5  A    between atoms: C_12  and  C_14
REMARK    6  A    between atoms: C_14  and  N_15
REMARK    7  A    between atoms: N_18  and  C_19
REMARK    8  A    between atoms: C_19  and  C_20
REMARK    9  A    between atoms: C_19  and  C_26
REMARK                            x       y       z     vdW  Elec       q    Type
REMARK                         _______ _______ _______ _____ _____    ______ ____
ROOT
ATOM      1  N   UNL     1       4.080   3.667  19.573  0.00  0.00    +0.000 NA
ATOM      2  C   UNL     1       4.045   2.674  18.476  0.00  0.00    +0.000 C 
ATOM      3  C   UNL     1       3.752   3.174  17.029  0.00  0.00    +0.000 C 
ATOM      4  N   UNL     1       4.408   4.446  16.628  0.00  0.00    +0.000 NA
ATOM      5  C   UNL     1       4.060   5.414  17.688  0.00  0.00    +0.000 C 
ATOM      6  C   UNL     1       4.516   4.996  19.095  0.00  0.00    +0.000 C 
ENDROOT
BRANCH   1   7
ATOM      7  C   UNL     1       2.903   3.707  20.467  0.00  0.00    +0.000 C 
BRANCH   7   8
ATOM      8  C   UNL     1       1.791   4.730  20.037  0.00  0.00    +0.000 C 
BRANCH   8   9
ATOM      9  O   UNL     1       0.487   4.138  20.183  0.00  0.00    +0.000 OA
ATOM     10  H   UNL     1       0.392   3.817  21.096  0.00  0.00    +0.000 HD
ENDBRANCH   8   9
BRANCH   8  11
ATOM     11  C   UNL     1       1.817   6.023  20.883  0.00  0.00    +0.000 C 
BRANCH  11  20
ATOM     12  C   UNL     1       1.011  10.638  19.585  0.00  0.00    +0.000 A 
ATOM     13  N   UNL     1       0.582  11.035  20.804  0.00  0.00    +0.000 NA
ATOM     14  C   UNL     1       0.490  10.105  21.782  0.00  0.00    +0.000 A 
ATOM     15  N   UNL     1       0.815   8.793  21.737  0.00  0.00    +0.000 NA
ATOM     16  C   UNL     1       1.243   8.454  20.512  0.00  0.00    +0.000 A 
ATOM     17  C   UNL     1       1.347   9.284  19.401  0.00  0.00    +0.000 A 
ATOM     18  N   UNL     1       1.783   8.583  18.302  0.00  0.00    +0.000 NA
ATOM     19  C   UNL     1       1.950   7.345  18.734  0.00  0.00    +0.000 A 
ATOM     20  N   UNL     1       1.684   7.232  20.087  0.00  0.00    +0.000 N 
BRANCH  12  21
ATOM     21  N   UNL     1       1.119  11.589  18.574  0.00  0.00    +0.000 N 
ATOM     22  H   UNL     1       1.185  12.529  18.943  0.00  0.00    +0.000 HD
ATOM     23  H   UNL     1       1.789  11.323  17.860  0.00  0.00    +0.000 HD
ENDBRANCH  12  21
ENDBRANCH  11  20
ENDBRANCH   8  11
ENDBRANCH   7   8
ENDBRANCH   1   7
BRANCH   4  24
ATOM     24  C   UNL     1       5.890   4.303  16.402  0.00  0.00    +0.000 C 
BRANCH  24  25
ATOM     25  C   UNL     1       6.209   4.322  14.894  0.00  0.00    +0.000 A 
ATOM     26  C   UNL     1       5.446   3.577  13.979  0.00  0.00    +0.000 A 
ATOM     27  C   UNL     1       5.812   3.496  12.634  0.00  0.00    +0.000 A 
ATOM     28  C   UNL     1       6.947   4.157  12.175  0.00  0.00    +0.000 A 
ATOM     29  C   UNL     1       7.701   4.928  13.060  0.00  0.00    +0.000 A 
ATOM     30  C   UNL     1       7.333   5.018  14.406  0.00  0.00    +0.000 A 
ENDBRANCH  24  25
BRANCH  24  31
ATOM     31  C   UNL     1       6.766   5.343  17.149  0.00  0.00    +0.000 A 
ATOM     32  C   UNL     1       6.761   6.695  16.756  0.00  0.00    +0.000 A 
ATOM     33  C   UNL     1       7.470   7.662  17.484  0.00  0.00    +0.000 A 
ATOM     34  C   UNL     1       8.196   7.295  18.616  0.00  0.00    +0.000 A 
ATOM     35  C   UNL     1       8.250   5.962  18.993  0.00  0.00    +0.000 A 
ATOM     36  C   UNL     1       7.544   4.993  18.270  0.00  0.00    +0.000 A 
ENDBRANCH  24  31
ENDBRANCH   4  24
TORSDOF 9
ENDMDL
MODEL 3
REMARK VINA RESULT:      -7.4      0.252      1.204
REMARK  Name = 
REMARK  9 active torsions:
REMARK  status: ('A' for Active; 'I' for Inactive)
REMARK    1  A    between atoms: N_1  and  C_2
REMARK    2  A    between atoms: N_10  and  C_11
REMARK    3  A    between atoms: C_11  and  C_12
REMARK    4  A    between atoms: C_12  and  O_13
REMARK    5  A    between atoms: C_12  and  C_14
REMARK    6  A    between atoms: C_14  and  N_15
REMARK    7  A    between atoms: N_18  and  C_19
REMARK    8  A    between atoms: C_19  and  C_20
REMARK    9  A    between atoms: C_19  and  C_26
REMARK                            x       y       z     vdW  Elec       q    Type
REMARK                         _______ _______ _______ _____ _____    ______ ____
ROOT
ATOM      1  N   UNL     1       1.722   8.054  18.799  0.00  0.00    +0.000 NA
ATOM      2  C   UNL     1       2.664   8.401  17.711  0.00  0.00    +0.000 C 
ATOM      3  C   UNL     1       4.122   7.856  17.789  0.00  0.00    +0.000 C 
ATOM      4  N   UNL     1       4.276   6.453  18.253  0.00  0.00    +0.000 NA
ATOM      5  C   UNL     1       3.531   6.381  19.528  0.00  0.00    +0.000 C 
ATOM      6  C   UNL     1       2.042   6.746  19.406  0.00  0.00    +0.000 C 
ENDROOT
BRANCH   1   7
ATOM      7  C   UNL     1       1.428   9.117  19.783  0.00  0.00    +0.000 C 
BRANCH   7   8
ATOM      8  C   UNL     1      -0.036   9.684  19.714  0.00  0.00    +0.000 C 
BRANCH   8   9
ATOM      9  O   UNL     1      -0.361  10.374  20.934  0.00  0.00    +0.000 OA
ATOM     10  H   UNL     1      -0.634  11.282  20.715  0.00  0.00    +0.000 HD
ENDBRANCH   8   9
BRANCH   8  11
ATOM     11  C   UNL     1      -0.231  10.678  18.546  0.00  0.00    +0.000 C 
BRANCH  11  20
ATOM     12  C   UNL     1      -4.940  11.757  17.998  0.00  0.00    +0.000 A 
ATOM     13  N   UNL     1      -5.020  12.521  19.110  0.00  0.00    +0.000 NA
ATOM     14  C   UNL     1      -3.921  12.630  19.890  0.00  0.00    +0.000 A 
ATOM     15  N   UNL     1      -2.689  12.106  19.697  0.00  0.00    +0.000 NA
ATOM     16  C   UNL     1      -2.660  11.367  18.577  0.00  0.00    +0.000 A 
ATOM     17  C   UNL     1      -3.716  11.126  17.705  0.00  0.00    +0.000 A 
ATOM     18  N   UNL     1      -3.330  10.289  16.686  0.00  0.00    +0.000 NA
ATOM     19  C   UNL     1      -2.056  10.027  16.926  0.00  0.00    +0.000 A 
ATOM     20  N   UNL     1      -1.593  10.705  18.038  0.00  0.00    +0.000 N 
BRANCH  12  21
ATOM     21  N   UNL     1      -6.062  11.645  17.182  0.00  0.00    +0.000 N 
ATOM     22  H   UNL     1      -5.821  11.682  16.199  0.00  0.00    +0.000 HD
ATOM     23  H   UNL     1      -6.687  10.903  17.479  0.00  0.00    +0.000 HD
ENDBRANCH  12  21
ENDBRANCH  11  20
ENDBRANCH   8  11
ENDBRANCH   7   8
ENDBRANCH   1   7
BRANCH   4  24
ATOM     24  C   UNL     1       3.830   5.438  17.234  0.00  0.00    +0.000 C 
BRANCH  24  25
ATOM     25  C   UNL     1       4.959   5.158  16.222  0.00  0.00    +0.000 A 
ATOM     26  C   UNL     1       4.707   4.463  15.027  0.00  0.00    +0.000 A 
ATOM     27  C   UNL     1       5.751   4.101  14.172  0.00  0.00    +0.000 A 
ATOM     28  C   UNL     1       7.065   4.426  14.493  0.00  0.00    +0.000 A 
ATOM     29  C   UNL     1       7.334   5.143  15.659  0.00  0.00    +0.000 A 
ATOM     30  C   UNL     1       6.290   5.514  16.514  0.00  0.00    +0.000 A 
ENDBRANCH  24  25
BRANCH  24  31
ATOM     31  C   UNL     1       3.300   4.107  17.828  0.00  0.00    +0.000 A 
ATOM     32  C   UNL     1       4.172   3.221  18.488  0.00  0.00    +0.000 A 
ATOM     33  C   UNL     1       3.690   2.064  19.116  0.00  0.00    +0.000 A 
ATOM     34  C   UNL     1       2.328   1.771  19.095  0.00  0.00    +0.000 A 
ATOM     35  C   UNL     1       1.457   2.606  18.413  0.00  0.00    +0.000 A 
ATOM     36  C   UNL     1       1.934   3.763  17.784  0.00  0.00    +0.000 A 
ENDBRANCH  24  31
ENDBRANCH   4  24
TORSDOF 9
ENDMDL
MODEL 4
REMARK VINA RESULT:      -7.3      0.941      1.860
REMARK  Name = 
REMARK  9 active torsions:
REMARK  status: ('A' for Active; 'I' for Inactive)
REMARK    1  A    between atoms: N_1  and  C_2
REMARK    2  A    between atoms: N_10  and  C_11
REMARK    3  A    between atoms: C_11  and  C_12
REMARK    4  A    between atoms: C_12  and  O_13
REMARK    5  A    between atoms: C_12  and  C_14
REMARK    6  A    between atoms: C_14  and  N_15
REMARK    7  A    between atoms: N_18  and  C_19
REMARK    8  A    between atoms: C_19  and  C_20
REMARK    9  A    between atoms: C_19  and  C_26
REMARK                            x       y       z     vdW  Elec       q    Type
REMARK                         _______ _______ _______ _____ _____    ______ ____
ROOT
ATOM      1  N   UNL     1       1.995   8.037  18.712  0.00  0.00    +0.000 NA
ATOM      2  C   UNL     1       2.998   8.264  17.647  0.00  0.00    +0.000 C 
ATOM      3  C   UNL     1       4.387   7.567  17.775  0.00  0.00    +0.000 C 
ATOM      4  N   UNL     1       4.376   6.163  18.261  0.00  0.00    +0.000 NA
ATOM      5  C   UNL     1       3.593   6.192  19.514  0.00  0.00    +0.000 C 
ATOM      6  C   UNL     1       2.156   6.712  19.345  0.00  0.00    +0.000 C 
ENDROOT
BRANCH   1   7
ATOM      7  C   UNL     1       1.790   9.141  19.673  0.00  0.00    +0.000 C 
BRANCH   7   8
ATOM      8  C   UNL     1       0.858  10.295  19.153  0.00  0.00    +0.000 C 
BRANCH   8   9
ATOM      9  O   UNL     1       1.635  11.286  18.456  0.00  0.00    +0.000 OA
ATOM     10  H   UNL     1       1.034  11.975  18.123  0.00  0.00    +0.000 HD
ENDBRANCH   8   9
BRANCH   8  11
ATOM     11  C   UNL     1      -0.231   9.784  18.183  0.00  0.00    +0.000 C 
BRANCH  11  20
ATOM     12  C   UNL     1      -4.493  11.760  16.931  0.00  0.00    +0.000 A 
ATOM     13  N   UNL     1      -4.539  11.186  15.708  0.00  0.00    +0.000 NA
ATOM     14  C   UNL     1      -3.489  10.429  15.319  0.00  0.00    +0.000 A 
ATOM     15  N   UNL     1      -2.372  10.108  16.011  0.00  0.00    +0.000 NA
ATOM     16  C   UNL     1      -2.380  10.694  17.218  0.00  0.00    +0.000 A 
ATOM     17  C   UNL     1      -3.362  11.532  17.737  0.00  0.00    +0.000 A 
ATOM     18  N   UNL     1      -3.014  11.980  18.988  0.00  0.00    +0.000 NA
ATOM     19  C   UNL     1      -1.842  11.420  19.236  0.00  0.00    +0.000 A 
ATOM     20  N   UNL     1      -1.442  10.587  18.207  0.00  0.00    +0.000 N 
BRANCH  12  21
ATOM     21  N   UNL     1      -5.573  12.534  17.347  0.00  0.00    +0.000 N 
ATOM     22  H   UNL     1      -5.363  13.057  18.187  0.00  0.00    +0.000 HD
ATOM     23  H   UNL     1      -6.007  13.040  16.582  0.00  0.00    +0.000 HD
ENDBRANCH  12  21
ENDBRANCH  11  20
ENDBRANCH   8  11
ENDBRANCH   7   8
ENDBRANCH   1   7
BRANCH   4  24
ATOM     24  C   UNL     1       3.852   5.186  17.242  0.00  0.00    +0.000 C 
BRANCH  24  25
ATOM     25  C   UNL     1       4.965   4.793  16.250  0.00  0.00    +0.000 A 
ATOM     26  C   UNL     1       6.320   4.994  16.560  0.00  0.00    +0.000 A 
ATOM     27  C   UNL     1       7.319   4.755  15.614  0.00  0.00    +0.000 A 
ATOM     28  C   UNL     1       6.983   4.310  14.339  0.00  0.00    +0.000 A 
ATOM     29  C   UNL     1       5.646   4.073  14.020  0.00  0.00    +0.000 A 
ATOM     30  C   UNL     1       4.644   4.305  14.968  0.00  0.00    +0.000 A 
ENDBRANCH  24  25
BRANCH  24  31
ATOM     31  C   UNL     1       3.191   3.916  17.838  0.00  0.00    +0.000 A 
ATOM     32  C   UNL     1       3.976   2.927  18.462  0.00  0.00    +0.000 A 
ATOM     33  C   UNL     1       3.383   1.823  19.091  0.00  0.00    +0.000 A 
ATOM     34  C   UNL     1       1.996   1.687  19.108  0.00  0.00    +0.000 A 
ATOM     35  C   UNL     1       1.207   2.626  18.461  0.00  0.00    +0.000 A 
ATOM     36  C   UNL     1       1.795   3.730  17.832  0.00  0.00    +0.000 A 
ENDBRANCH  24  31
ENDBRANCH   4  24
TORSDOF 9
ENDMDL
MODEL 5
REMARK VINA RESULT:      -7.3      3.225      5.040
REMARK  Name = 
REMARK  9 active torsions:
REMARK  status: ('A' for Active; 'I' for Inactive)
REMARK    1  A    between atoms: N_1  and  C_2
REMARK    2  A    between atoms: N_10  and  C_11
REMARK    3  A    between atoms: C_11  and  C_12
REMARK    4  A    between atoms: C_12  and  O_13
REMARK    5  A    between atoms: C_12  and  C_14
REMARK    6  A    between atoms: C_14  and  N_15
REMARK    7  A    between atoms: N_18  and  C_19
REMARK    8  A    between atoms: C_19  and  C_20
REMARK    9  A    between atoms: C_19  and  C_26
REMARK                            x       y       z     vdW  Elec       q    Type
REMARK                         _______ _______ _______ _____ _____    ______ ____
ROOT
ATOM      1  N   UNL     1       3.985   3.735  19.660  0.00  0.00    +0.000 NA
ATOM      2  C   UNL     1       4.096   2.666  18.642  0.00  0.00    +0.000 C 
ATOM      3  C   UNL     1       3.844   3.034  17.148  0.00  0.00    +0.000 C 
ATOM      4  N   UNL     1       4.412   4.326  16.685  0.00  0.00    +0.000 NA
ATOM      5  C   UNL     1       3.924   5.334  17.649  0.00  0.00    +0.000 C 
ATOM      6  C   UNL     1       4.334   5.059  19.105  0.00  0.00    +0.000 C 
ENDROOT
BRANCH   1   7
ATOM      7  C   UNL     1       2.762   3.734  20.489  0.00  0.00    +0.000 C 
BRANCH   7   8
ATOM      8  C   UNL     1       1.735   4.871  20.138  0.00  0.00    +0.000 C 
BRANCH   8   9
ATOM      9  O   UNL     1       0.391   4.361  20.187  0.00  0.00    +0.000 OA
ATOM     10  H   UNL     1      -0.182   5.030  20.598  0.00  0.00    +0.000 HD
ENDBRANCH   8   9
BRANCH   8  11
ATOM     11  C   UNL     1       1.819   6.066  21.115  0.00  0.00    +0.000 C 
BRANCH  11  20
ATOM     12  C   UNL     1       0.774  10.753  20.356  0.00  0.00    +0.000 A 
ATOM     13  N   UNL     1       0.307  10.978  21.604  0.00  0.00    +0.000 NA
ATOM     14  C   UNL     1       0.253   9.934  22.463  0.00  0.00    +0.000 A 
ATOM     15  N   UNL     1       0.652   8.657  22.270  0.00  0.00    +0.000 NA
ATOM     16  C   UNL     1       1.115   8.490  21.022  0.00  0.00    +0.000 A 
ATOM     17  C   UNL     1       1.188   9.451  20.020  0.00  0.00    +0.000 A 
ATOM     18  N   UNL     1       1.678   8.911  18.855  0.00  0.00    +0.000 NA
ATOM     19  C   UNL     1       1.908   7.640  19.141  0.00  0.00    +0.000 A 
ATOM     20  N   UNL     1       1.630   7.352  20.465  0.00  0.00    +0.000 N 
BRANCH  12  21
ATOM     21  N   UNL     1       0.844  11.822  19.467  0.00  0.00    +0.000 N 
ATOM     22  H   UNL     1       0.157  11.745  18.727  0.00  0.00    +0.000 HD
ATOM     23  H   UNL     1       0.918  12.717  19.939  0.00  0.00    +0.000 HD
ENDBRANCH  12  21
ENDBRANCH  11  20
ENDBRANCH   8  11
ENDBRANCH   7   8
ENDBRANCH   1   7
BRANCH   4  24
ATOM     24  C   UNL     1       5.910   4.299  16.544  0.00  0.00    +0.000 C 
BRANCH  24  25
ATOM     25  C   UNL     1       6.312   4.244  15.056  0.00  0.00    +0.000 A 
ATOM     26  C   UNL     1       7.420   4.961  14.575  0.00  0.00    +0.000 A 
ATOM     27  C   UNL     1       7.708   5.011  13.209  0.00  0.00    +0.000 A 
ATOM     28  C   UNL     1       6.895   4.343  12.298  0.00  0.00    +0.000 A 
ATOM     29  C   UNL     1       5.808   3.599  12.757  0.00  0.00    +0.000 A 
ATOM     30  C   UNL     1       5.522   3.542  14.125  0.00  0.00    +0.000 A 
ENDBRANCH  24  25
BRANCH  24  31
ATOM     31  C   UNL     1       6.652   5.460  17.256  0.00  0.00    +0.000 A 
ATOM     32  C   UNL     1       7.480   5.205  18.366  0.00  0.00    +0.000 A 
ATOM     33  C   UNL     1       8.235   6.229  18.958  0.00  0.00    +0.000 A 
ATOM     34  C   UNL     1       8.175   7.525  18.451  0.00  0.00    +0.000 A 
ATOM     35  C   UNL     1       7.332   7.808  17.387  0.00  0.00    +0.000 A 
ATOM     36  C   UNL     1       6.577   6.788  16.793  0.00  0.00    +0.000 A 
ENDBRANCH  24  31
ENDBRANCH   4  24
TORSDOF 9
ENDMDL
MODEL 6
REMARK VINA RESULT:      -7.2      6.342     10.655
REMARK  Name = 
REMARK  9 active torsions:
REMARK  status: ('A' for Active; 'I' for Inactive)
REMARK    1  A    between atoms: N_1  and  C_2
REMARK    2  A    between atoms: N_10  and  C_11
REMARK    3  A    between atoms: C_11  and  C_12
REMARK    4  A    between atoms: C_12  and  O_13
REMARK    5  A    between atoms: C_12  and  C_14
REMARK    6  A    between atoms: C_14  and  N_15
REMARK    7  A    between atoms: N_18  and  C_19
REMARK    8  A    between atoms: C_19  and  C_20
REMARK    9  A    between atoms: C_19  and  C_26
REMARK                            x       y       z     vdW  Elec       q    Type
REMARK                         _______ _______ _______ _____ _____    ______ ____
ROOT
ATOM      1  N   UNL     1       2.927  13.700  19.361  0.00  0.00    +0.000 NA
ATOM      2  C   UNL     1       2.410  13.241  20.669  0.00  0.00    +0.000 C 
ATOM      3  C   UNL     1       0.890  13.413  20.970  0.00  0.00    +0.000 C 
ATOM      4  N   UNL     1      -0.039  13.111  19.850  0.00  0.00    +0.000 NA
ATOM      5  C   UNL     1       0.450  13.916  18.711  0.00  0.00    +0.000 C 
ATOM      6  C   UNL     1       1.900  13.609  18.303  0.00  0.00    +0.000 C 
ENDROOT
BRANCH   1   7
ATOM      7  C   UNL     1       3.682  14.971  19.357  0.00  0.00    +0.000 C 
BRANCH   7   8
ATOM      8  C   UNL     1       5.147  14.858  18.798  0.00  0.00    +0.000 C 
BRANCH   8   9
ATOM      9  O   UNL     1       5.214  15.396  17.465  0.00  0.00    +0.000 OA
ATOM     10  H   UNL     1       5.932  14.949  16.985  0.00  0.00    +0.000 HD
ENDBRANCH   8   9
BRANCH   8  11
ATOM     11  C   UNL     1       6.171  15.625  19.665  0.00  0.00    +0.000 C 
BRANCH  11  20
ATOM     12  C   UNL     1      10.423  15.082  17.371  0.00  0.00    +0.000 A 
ATOM     13  N   UNL     1      10.499  13.747  17.568  0.00  0.00    +0.000 NA
ATOM     14  C   UNL     1       9.522  13.153  18.291  0.00  0.00    +0.000 A 
ATOM     15  N   UNL     1       8.413  13.704  18.833  0.00  0.00    +0.000 NA
ATOM     16  C   UNL     1       8.382  15.025  18.601  0.00  0.00    +0.000 A 
ATOM     17  C   UNL     1       9.330  15.780  17.918  0.00  0.00    +0.000 A 
ATOM     18  N   UNL     1       8.988  17.110  17.912  0.00  0.00    +0.000 NA
ATOM     19  C   UNL     1       7.845  17.171  18.573  0.00  0.00    +0.000 A 
ATOM     20  N   UNL     1       7.411  15.917  18.965  0.00  0.00    +0.000 N 
BRANCH  12  21
ATOM     21  N   UNL     1      11.417  15.703  16.621  0.00  0.00    +0.000 N 
ATOM     22  H   UNL     1      11.044  16.149  15.792  0.00  0.00    +0.000 HD
ATOM     23  H   UNL     1      12.054  16.248  17.192  0.00  0.00    +0.000 HD
ENDBRANCH  12  21
ENDBRANCH  11  20
ENDBRANCH   8  11
ENDBRANCH   7   8
ENDBRANCH   1   7
BRANCH   4  24
ATOM     24  C   UNL     1      -0.148  11.640  19.549  0.00  0.00    +0.000 C 
BRANCH  24  25
ATOM     25  C   UNL     1      -0.172  10.822  20.855  0.00  0.00    +0.000 A 
ATOM     26  C   UNL     1      -1.024  11.172  21.917  0.00  0.00    +0.000 A 
ATOM     27  C   UNL     1      -0.956  10.509  23.144  0.00  0.00    +0.000 A 
ATOM     28  C   UNL     1      -0.036   9.482  23.335  0.00  0.00    +0.000 A 
ATOM     29  C   UNL     1       0.797   9.097  22.284  0.00  0.00    +0.000 A 
ATOM     30  C   UNL     1       0.726   9.755  21.052  0.00  0.00    +0.000 A 
ENDBRANCH  24  25
BRANCH  24  31
ATOM     31  C   UNL     1      -1.347  11.247  18.648  0.00  0.00    +0.000 A 
ATOM     32  C   UNL     1      -1.216  10.222  17.691  0.00  0.00    +0.000 A 
ATOM     33  C   UNL     1      -2.318   9.788  16.939  0.00  0.00    +0.000 A 
ATOM     34  C   UNL     1      -3.570  10.371  17.130  0.00  0.00    +0.000 A 
ATOM     35  C   UNL     1      -3.710  11.412  18.034  0.00  0.00    +0.000 A 
ATOM     36  C   UNL     1      -2.613  11.848  18.787  0.00  0.00    +0.000 A 
ENDBRANCH  24  31
ENDBRANCH   4  24
TORSDOF 9
ENDMDL
MODEL 7
REMARK VINA RESULT:      -7.2      0.732      1.774
REMARK  Name = 
REMARK  9 active torsions:
REMARK  status: ('A' for Active; 'I' for Inactive)
REMARK    1  A    between atoms: N_1  and  C_2
REMARK    2  A    between atoms: N_10  and  C_11
REMARK    3  A    between atoms: C_11  and  C_12
REMARK    4  A    between atoms: C_12  and  O_13
REMARK    5  A    between atoms: C_12  and  C_14
REMARK    6  A    between atoms: C_14  and  N_15
REMARK    7  A    between atoms: N_18  and  C_19
REMARK    8  A    between atoms: C_19  and  C_20
REMARK    9  A    between atoms: C_19  and  C_26
REMARK                            x       y       z     vdW  Elec       q    Type
REMARK                         _______ _______ _______ _____ _____    ______ ____
ROOT
ATOM      1  N   UNL     1       1.756   7.667  19.252  0.00  0.00    +0.000 NA
ATOM      2  C   UNL     1       2.491   8.173  18.071  0.00  0.00    +0.000 C 
ATOM      3  C   UNL     1       3.991   7.781  17.905  0.00  0.00    +0.000 C 
ATOM      4  N   UNL     1       4.345   6.378  18.241  0.00  0.00    +0.000 NA
ATOM      5  C   UNL     1       3.805   6.155  19.599  0.00  0.00    +0.000 C 
ATOM      6  C   UNL     1       2.286   6.368  19.713  0.00  0.00    +0.000 C 
ENDROOT
BRANCH   1   7
ATOM      7  C   UNL     1       1.509   8.635  20.342  0.00  0.00    +0.000 C 
BRANCH   7   8
ATOM      8  C   UNL     1       0.096   9.323  20.295  0.00  0.00    +0.000 C 
BRANCH   8   9
ATOM      9  O   UNL     1      -0.366   9.601  21.629  0.00  0.00    +0.000 OA
ATOM     10  H   UNL     1      -0.520  10.557  21.713  0.00  0.00    +0.000 HD
ENDBRANCH   8   9
BRANCH   8  11
ATOM     11  C   UNL     1       0.113  10.658  19.516  0.00  0.00    +0.000 C 
BRANCH  11  20
ATOM     12  C   UNL     1      -4.146  11.355  17.278  0.00  0.00    +0.000 A 
ATOM     13  N   UNL     1      -3.850  10.582  16.209  0.00  0.00    +0.000 NA
ATOM     14  C   UNL     1      -2.617  10.031  16.143  0.00  0.00    +0.000 A 
ATOM     15  N   UNL     1      -1.608  10.100  17.039  0.00  0.00    +0.000 NA
ATOM     16  C   UNL     1      -1.955  10.869  18.083  0.00  0.00    +0.000 A 
ATOM     17  C   UNL     1      -3.161  11.536  18.268  0.00  0.00    +0.000 A 
ATOM     18  N   UNL     1      -3.148  12.262  19.434  0.00  0.00    +0.000 NA
ATOM     19  C   UNL     1      -1.955  12.038  19.960  0.00  0.00    +0.000 A 
ATOM     20  N   UNL     1      -1.215  11.153  19.197  0.00  0.00    +0.000 N 
BRANCH  12  21
ATOM     21  N   UNL     1      -5.415  11.920  17.363  0.00  0.00    +0.000 N 
ATOM     22  H   UNL     1      -5.429  12.730  17.969  0.00  0.00    +0.000 HD
ATOM     23  H   UNL     1      -5.861  12.012  16.456  0.00  0.00    +0.000 HD
ENDBRANCH  12  21
ENDBRANCH  11  20
ENDBRANCH   8  11
ENDBRANCH   7   8
ENDBRANCH   1   7
BRANCH   4  24
ATOM     24  C   UNL     1       3.854   5.382  17.224  0.00  0.00    +0.000 C 
BRANCH  24  25
ATOM     25  C   UNL     1       4.948   5.099  16.175  0.00  0.00    +0.000 A 
ATOM     26  C   UNL     1       4.654   4.408  14.987  0.00  0.00    +0.000 A 
ATOM     27  C   UNL     1       5.667   4.042  14.098  0.00  0.00    +0.000 A 
ATOM     28  C   UNL     1       6.993   4.361  14.377  0.00  0.00    +0.000 A 
ATOM     29  C   UNL     1       7.303   5.074  15.535  0.00  0.00    +0.000 A 
ATOM     30  C   UNL     1       6.290   5.448  16.424  0.00  0.00    +0.000 A 
ENDBRANCH  24  25
BRANCH  24  31
ATOM     31  C   UNL     1       3.324   4.052  17.819  0.00  0.00    +0.000 A 
ATOM     32  C   UNL     1       1.946   3.761  17.803  0.00  0.00    +0.000 A 
ATOM     33  C   UNL     1       1.463   2.520  18.246  0.00  0.00    +0.000 A 
ATOM     34  C   UNL     1       2.348   1.550  18.712  0.00  0.00    +0.000 A 
ATOM     35  C   UNL     1       3.703   1.832  18.777  0.00  0.00    +0.000 A 
ATOM     36  C   UNL     1       4.190   3.069  18.336  0.00  0.00    +0.000 A 
ENDBRANCH  24  31
ENDBRANCH   4  24
TORSDOF 9
ENDMDL
MODEL 8
REMARK VINA RESULT:      -7.1      2.761      4.760
REMARK  Name = 
REMARK  9 active torsions:
REMARK  status: ('A' for Active; 'I' for Inactive)
REMARK    1  A    between atoms: N_1  and  C_2
REMARK    2  A    between atoms: N_10  and  C_11
REMARK    3  A    between atoms: C_11  and  C_12
REMARK    4  A    between atoms: C_12  and  O_13
REMARK    5  A    between atoms: C_12  and  C_14
REMARK    6  A    between atoms: C_14  and  N_15
REMARK    7  A    between atoms: N_18  and  C_19
REMARK    8  A    between atoms: C_19  and  C_20
REMARK    9  A    between atoms: C_19  and  C_26
REMARK                            x       y       z     vdW  Elec       q    Type
REMARK                         _______ _______ _______ _____ _____    ______ ____
ROOT
ATOM      1  N   UNL     1       4.086   4.204  19.598  0.00  0.00    +0.000 NA
ATOM      2  C   UNL     1       4.247   2.959  18.813  0.00  0.00    +0.000 C 
ATOM      3  C   UNL     1       3.938   3.000  17.285  0.00  0.00    +0.000 C 
ATOM      4  N   UNL     1       4.408   4.203  16.551  0.00  0.00    +0.000 NA
ATOM      5  C   UNL     1       3.874   5.354  17.309  0.00  0.00    +0.000 C 
ATOM      6  C   UNL     1       4.333   5.406  18.776  0.00  0.00    +0.000 C 
ENDROOT
BRANCH   1   7
ATOM      7  C   UNL     1       2.883   4.297  20.452  0.00  0.00    +0.000 C 
BRANCH   7   8
ATOM      8  C   UNL     1       1.874   5.428  20.037  0.00  0.00    +0.000 C 
BRANCH   8   9
ATOM      9  O   UNL     1       0.539   5.078  20.445  0.00  0.00    +0.000 OA
ATOM     10  H   UNL     1       0.146   5.838  20.907  0.00  0.00    +0.000 HD
ENDBRANCH   8   9
BRANCH   8  11
ATOM     11  C   UNL     1       2.219   6.792  20.676  0.00  0.00    +0.000 C 
BRANCH  11  20
ATOM     12  C   UNL     1       0.221  11.008  19.307  0.00  0.00    +0.000 A 
ATOM     13  N   UNL     1      -0.385  11.246  20.491  0.00  0.00    +0.000 NA
ATOM     14  C   UNL     1      -0.275  10.312  21.463  0.00  0.00    +0.000 A 
ATOM     15  N   UNL     1       0.412   9.148  21.447  0.00  0.00    +0.000 NA
ATOM     16  C   UNL     1       1.002   8.964  20.256  0.00  0.00    +0.000 A 
ATOM     17  C   UNL     1       0.942   9.808  19.152  0.00  0.00    +0.000 A 
ATOM     18  N   UNL     1       1.634   9.279  18.090  0.00  0.00    +0.000 NA
ATOM     19  C   UNL     1       2.117   8.132  18.537  0.00  0.00    +0.000 A 
ATOM     20  N   UNL     1       1.801   7.926  19.868  0.00  0.00    +0.000 N 
BRANCH  12  21
ATOM     21  N   UNL     1       0.124  11.966  18.302  0.00  0.00    +0.000 N 
ATOM     22  H   UNL     1       0.602  12.823  18.548  0.00  0.00    +0.000 HD
ATOM     23  H   UNL     1       0.305  11.583  17.380  0.00  0.00    +0.000 HD
ENDBRANCH  12  21
ENDBRANCH  11  20
ENDBRANCH   8  11
ENDBRANCH   7   8
ENDBRANCH   1   7
BRANCH   4  24
ATOM     24  C   UNL     1       5.902   4.240  16.367  0.00  0.00    +0.000 C 
BRANCH  24  25
ATOM     25  C   UNL     1       6.259   4.316  14.869  0.00  0.00    +0.000 A 
ATOM     26  C   UNL     1       5.524   3.600  13.909  0.00  0.00    +0.000 A 
ATOM     27  C   UNL     1       5.923   3.570  12.571  0.00  0.00    +0.000 A 
ATOM     28  C   UNL     1       7.065   4.255  12.166  0.00  0.00    +0.000 A 
ATOM     29  C   UNL     1       7.792   4.998  13.096  0.00  0.00    +0.000 A 
ATOM     30  C   UNL     1       7.389   5.036  14.436  0.00  0.00    +0.000 A 
ENDBRANCH  24  25
BRANCH  24  31
ATOM     31  C   UNL     1       6.627   5.367  17.149  0.00  0.00    +0.000 A 
ATOM     32  C   UNL     1       7.382   5.067  18.299  0.00  0.00    +0.000 A 
ATOM     33  C   UNL     1       8.123   6.059  18.958  0.00  0.00    +0.000 A 
ATOM     34  C   UNL     1       8.123   7.367  18.479  0.00  0.00    +0.000 A 
ATOM     35  C   UNL     1       7.351   7.693  17.375  0.00  0.00    +0.000 A 
ATOM     36  C   UNL     1       6.610   6.706  16.714  0.00  0.00    +0.000 A 
ENDBRANCH  24  31
ENDBRANCH   4  24
TORSDOF 9
ENDMDL
MODEL 9
REMARK VINA RESULT:      -7.1      3.258     10.358
REMARK  Name = 
REMARK  9 active torsions:
REMARK  status: ('A' for Active; 'I' for Inactive)
REMARK    1  A    between atoms: N_1  and  C_2
REMARK    2  A    between atoms: N_10  and  C_11
REMARK    3  A    between atoms: C_11  and  C_12
REMARK    4  A    between atoms: C_12  and  O_13
REMARK    5  A    between atoms: C_12  and  C_14
REMARK    6  A    between atoms: C_14  and  N_15
REMARK    7  A    between atoms: N_18  and  C_19
REMARK    8  A    between atoms: C_19  and  C_20
REMARK    9  A    between atoms: C_19  and  C_26
REMARK                            x       y       z     vdW  Elec       q    Type
REMARK                         _______ _______ _______ _____ _____    ______ ____
ROOT
ATOM      1  N   UNL     1       1.090  10.101  19.390  0.00  0.00    +0.000 NA
ATOM      2  C   UNL     1       1.536  11.488  19.129  0.00  0.00    +0.000 C 
ATOM      3  C   UNL     1       0.474  12.539  18.685  0.00  0.00    +0.000 C 
ATOM      4  N   UNL     1      -0.838  12.481  19.380  0.00  0.00    +0.000 NA
ATOM      5  C   UNL     1      -1.283  11.077  19.255  0.00  0.00    +0.000 C 
ATOM      6  C   UNL     1      -0.309  10.054  19.862  0.00  0.00    +0.000 C 
ENDROOT
BRANCH   1   7
ATOM      7  C   UNL     1       1.408   9.097  18.352  0.00  0.00    +0.000 C 
BRANCH   7   8
ATOM      8  C   UNL     1       2.394   7.965  18.819  0.00  0.00    +0.000 C 
BRANCH   8   9
ATOM      9  O   UNL     1       2.136   7.615  20.190  0.00  0.00    +0.000 OA
ATOM     10  H   UNL     1       1.191   7.407  20.286  0.00  0.00    +0.000 HD
ENDBRANCH   8   9
BRANCH   8  11
ATOM     11  C   UNL     1       2.260   6.679  17.972  0.00  0.00    +0.000 C 
BRANCH  11  20
ATOM     12  C   UNL     1       4.058   2.709  20.128  0.00  0.00    +0.000 A 
ATOM     13  N   UNL     1       2.956   2.464  20.871  0.00  0.00    +0.000 NA
ATOM     14  C   UNL     1       1.927   3.339  20.793  0.00  0.00    +0.000 A 
ATOM     15  N   UNL     1       1.809   4.442  20.022  0.00  0.00    +0.000 NA
ATOM     16  C   UNL     1       2.922   4.635  19.299  0.00  0.00    +0.000 A 
ATOM     17  C   UNL     1       4.072   3.853  19.306  0.00  0.00    +0.000 A 
ATOM     18  N   UNL     1       5.028   4.375  18.469  0.00  0.00    +0.000 NA
ATOM     19  C   UNL     1       4.470   5.456  17.950  0.00  0.00    +0.000 A 
ATOM     20  N   UNL     1       3.168   5.623  18.387  0.00  0.00    +0.000 N 
BRANCH  12  21
ATOM     21  N   UNL     1       5.120   1.812  20.191  0.00  0.00    +0.000 N 
ATOM     22  H   UNL     1       5.729   1.887  19.386  0.00  0.00    +0.000 HD
ATOM     23  H   UNL     1       5.560   1.794  21.105  0.00  0.00    +0.000 HD
ENDBRANCH  12  21
ENDBRANCH  11  20
ENDBRANCH   8  11
ENDBRANCH   7   8
ENDBRANCH   1   7
BRANCH   4  24
ATOM     24  C   UNL     1      -0.779  12.973  20.801  0.00  0.00    +0.000 C 
BRANCH  24  25
ATOM     25  C   UNL     1      -0.256  14.423  20.849  0.00  0.00    +0.000 A 
ATOM     26  C   UNL     1      -0.756  15.405  19.978  0.00  0.00    +0.000 A 
ATOM     27  C   UNL     1      -0.195  16.684  19.936  0.00  0.00    +0.000 A 
ATOM     28  C   UNL     1       0.876  17.006  20.764  0.00  0.00    +0.000 A 
ATOM     29  C   UNL     1       1.367  16.055  21.660  0.00  0.00    +0.000 A 
ATOM     30  C   UNL     1       0.802  14.776  21.709  0.00  0.00    +0.000 A 
ENDBRANCH  24  25
BRANCH  24  31
ATOM     31  C   UNL     1      -2.111  12.858  21.586  0.00  0.00    +0.000 A 
ATOM     32  C   UNL     1      -2.130  12.323  22.889  0.00  0.00    +0.000 A 
ATOM     33  C   UNL     1      -3.309  12.304  23.648  0.00  0.00    +0.000 A 
ATOM     34  C   UNL     1      -4.491  12.820  23.119  0.00  0.00    +0.000 A 
ATOM     35  C   UNL     1      -4.505  13.310  21.822  0.00  0.00    +0.000 A 
ATOM     36  C   UNL     1      -3.330  13.331  21.061  0.00  0.00    +0.000 A 
ENDBRANCH  24  31
ENDBRANCH   4  24
TORSDOF 9
ENDMDL
