MODEL 1
REMARK VINA RESULT:      -6.7      0.000      0.000
REMARK  Name = 
REMARK  3 active torsions:
REMARK  status: ('A' for Active; 'I' for Inactive)
REMARK    1  A    between atoms: C_1  and  C_2
REMARK    2  A    between atoms: C_2  and  C_3
REMARK    3  A    between atoms: P_6  and  C_8
REMARK                            x       y       z     vdW  Elec       q    Type
REMARK                         _______ _______ _______ _____ _____    ______ ____
ROOT
ATOM      1  C   UNL     1       7.610   4.547  17.247  0.00  0.00    +0.000 C 
ATOM      2  C   UNL     1       6.461   4.978  18.158  0.00  0.00    +0.000 C 
ATOM      3  C   UNL     1       6.998   5.498  19.494  0.00  0.00    +0.000 C 
ATOM      4  C   UNL     1       5.561   6.067  17.503  0.00  0.00    +0.000 C 
ATOM      5  O   UNL     1       4.227   5.813  17.992  0.00  0.00    +0.000 OA
ATOM      6  P   UNL     1       4.043   4.200  17.932  0.00  0.00    +0.000 P 
ATOM      7  O   UNL     1       3.784   3.748  16.524  0.00  0.00    +0.000 OA
ATOM      8  N   UNL     1       5.584   3.824  18.420  0.00  0.00    +0.000 NA
ATOM      9  H   UNL     1       5.898   3.000  17.923  0.00  0.00    +0.000 HD
ENDROOT
BRANCH   6  10
ATOM     10  C   UNL     1       2.967   3.606  19.187  0.00  0.00    +0.000 A 
ATOM     11  C   UNL     1       3.537   2.863  20.237  0.00  0.00    +0.000 A 
ATOM     12  C   UNL     1       2.801   2.558  21.379  0.00  0.00    +0.000 A 
ATOM     13  C   UNL     1       1.479   2.977  21.480  0.00  0.00    +0.000 A 
ATOM     14  C   UNL     1       0.883   3.670  20.424  0.00  0.00    +0.000 A 
ATOM     15  C   UNL     1       1.623   3.980  19.279  0.00  0.00    +0.000 A 
ENDBRANCH   6  10
TORSDOF 1
ENDMDL
MODEL 2
REMARK VINA RESULT:      -6.4      1.579      5.222
REMARK  Name = 
REMARK  3 active torsions:
REMARK  status: ('A' for Active; 'I' for Inactive)
REMARK    1  A    between atoms: C_1  and  C_2
REMARK    2  A    between atoms: C_2  and  C_3
REMARK    3  A    between atoms: P_6  and  C_8
REMARK                            x       y       z     vdW  Elec       q    Type
REMARK                         _______ _______ _______ _____ _____    ______ ____
ROOT
ATOM      1  C   UNL     1       1.414   2.718  20.481  0.00  0.00    +0.000 C 
ATOM      2  C   UNL     1       2.287   3.101  19.287  0.00  0.00    +0.000 C 
ATOM      3  C   UNL     1       2.834   1.850  18.594  0.00  0.00    +0.000 C 
ATOM      4  C   UNL     1       1.523   3.975  18.249  0.00  0.00    +0.000 C 
ATOM      5  O   UNL     1       2.510   4.869  17.693  0.00  0.00    +0.000 OA
ATOM      6  P   UNL     1       3.401   5.372  18.956  0.00  0.00    +0.000 P 
ATOM      7  O   UNL     1       2.663   6.418  19.742  0.00  0.00    +0.000 OA
ATOM      8  N   UNL     1       3.423   3.915  19.752  0.00  0.00    +0.000 NA
ATOM      9  H   UNL     1       3.376   4.081  20.749  0.00  0.00    +0.000 HD
ENDROOT
BRANCH   6  10
ATOM     10  C   UNL     1       5.062   5.715  18.504  0.00  0.00    +0.000 A 
ATOM     11  C   UNL     1       5.277   6.610  17.441  0.00  0.00    +0.000 A 
ATOM     12  C   UNL     1       6.548   7.111  17.172  0.00  0.00    +0.000 A 
ATOM     13  C   UNL     1       7.626   6.710  17.954  0.00  0.00    +0.000 A 
ATOM     14  C   UNL     1       7.438   5.783  18.980  0.00  0.00    +0.000 A 
ATOM     15  C   UNL     1       6.162   5.283  19.252  0.00  0.00    +0.000 A 
ENDBRANCH   6  10
TORSDOF 1
ENDMDL
MODEL 3
REMARK VINA RESULT:      -6.4      1.819      5.249
REMARK  Name = 
REMARK  3 active torsions:
REMARK  status: ('A' for Active; 'I' for Inactive)
REMARK    1  A    between atoms: C_1  and  C_2
REMARK    2  A    between atoms: C_2  and  C_3
REMARK    3  A    between atoms: P_6  and  C_8
REMARK                            x       y       z     vdW  Elec       q    Type
REMARK                         _______ _______ _______ _____ _____    ______ ____
ROOT
ATOM      1  C   UNL     1       1.645   2.102  18.337  0.00  0.00    +0.000 C 
ATOM      2  C   UNL     1       2.244   3.499  18.491  0.00  0.00    +0.000 C 
ATOM      3  C   UNL     1       1.445   4.521  17.678  0.00  0.00    +0.000 C 
ATOM      4  C   UNL     1       2.309   3.957  19.978  0.00  0.00    +0.000 C 
ATOM      5  O   UNL     1       3.493   4.775  20.081  0.00  0.00    +0.000 OA
ATOM      6  P   UNL     1       4.635   3.994  19.228  0.00  0.00    +0.000 P 
ATOM      7  O   UNL     1       5.177   2.831  20.009  0.00  0.00    +0.000 OA
ATOM      8  N   UNL     1       3.634   3.493  18.003  0.00  0.00    +0.000 NA
ATOM      9  H   UNL     1       3.916   2.569  17.701  0.00  0.00    +0.000 HD
ENDROOT
BRANCH   6  10
ATOM     10  C   UNL     1       5.793   5.096  18.502  0.00  0.00    +0.000 A 
ATOM     11  C   UNL     1       5.373   5.844  17.388  0.00  0.00    +0.000 A 
ATOM     12  C   UNL     1       6.141   6.898  16.900  0.00  0.00    +0.000 A 
ATOM     13  C   UNL     1       7.352   7.208  17.511  0.00  0.00    +0.000 A 
ATOM     14  C   UNL     1       7.808   6.442  18.586  0.00  0.00    +0.000 A 
ATOM     15  C   UNL     1       7.035   5.386  19.077  0.00  0.00    +0.000 A 
ENDBRANCH   6  10
TORSDOF 1
ENDMDL
MODEL 4
REMARK VINA RESULT:      -6.4      1.605      5.070
REMARK  Name = 
REMARK  3 active torsions:
REMARK  status: ('A' for Active; 'I' for Inactive)
REMARK    1  A    between atoms: C_1  and  C_2
REMARK    2  A    between atoms: C_2  and  C_3
REMARK    3  A    between atoms: P_6  and  C_8
REMARK                            x       y       z     vdW  Elec       q    Type
REMARK                         _______ _______ _______ _____ _____    ______ ____
ROOT
ATOM      1  C   UNL     1       1.071   3.179  19.472  0.00  0.00    +0.000 C 
ATOM      2  C   UNL     1       2.437   3.682  19.938  0.00  0.00    +0.000 C 
ATOM      3  C   UNL     1       2.300   4.502  21.224  0.00  0.00    +0.000 C 
ATOM      4  C   UNL     1       3.449   2.522  20.169  0.00  0.00    +0.000 C 
ATOM      5  O   UNL     1       4.741   3.058  19.813  0.00  0.00    +0.000 OA
ATOM      6  P   UNL     1       4.497   3.912  18.452  0.00  0.00    +0.000 P 
ATOM      7  O   UNL     1       4.373   2.996  17.268  0.00  0.00    +0.000 OA
ATOM      8  N   UNL     1       3.025   4.539  18.894  0.00  0.00    +0.000 NA
ATOM      9  H   UNL     1       2.428   4.592  18.078  0.00  0.00    +0.000 HD
ENDROOT
BRANCH   6  10
ATOM     10  C   UNL     1       5.596   5.274  18.315  0.00  0.00    +0.000 A 
ATOM     11  C   UNL     1       6.758   5.258  19.108  0.00  0.00    +0.000 A 
ATOM     12  C   UNL     1       7.784   6.173  18.893  0.00  0.00    +0.000 A 
ATOM     13  C   UNL     1       7.655   7.131  17.893  0.00  0.00    +0.000 A 
ATOM     14  C   UNL     1       6.487   7.194  17.132  0.00  0.00    +0.000 A 
ATOM     15  C   UNL     1       5.457   6.272  17.345  0.00  0.00    +0.000 A 
ENDBRANCH   6  10
TORSDOF 1
ENDMDL
MODEL 5
REMARK VINA RESULT:      -6.4      0.767      1.206
REMARK  Name = 
REMARK  3 active torsions:
REMARK  status: ('A' for Active; 'I' for Inactive)
REMARK    1  A    between atoms: C_1  and  C_2
REMARK    2  A    between atoms: C_2  and  C_3
REMARK    3  A    between atoms: P_6  and  C_8
REMARK                            x       y       z     vdW  Elec       q    Type
REMARK                         _______ _______ _______ _____ _____    ______ ____
ROOT
ATOM      1  C   UNL     1       7.782   4.418  17.460  0.00  0.00    +0.000 C 
ATOM      2  C   UNL     1       6.605   5.044  18.206  0.00  0.00    +0.000 C 
ATOM      3  C   UNL     1       7.064   5.633  19.542  0.00  0.00    +0.000 C 
ATOM      4  C   UNL     1       5.892   6.148  17.370  0.00  0.00    +0.000 C 
ATOM      5  O   UNL     1       4.499   6.073  17.737  0.00  0.00    +0.000 OA
ATOM      6  P   UNL     1       4.150   4.487  17.795  0.00  0.00    +0.000 P 
ATOM      7  O   UNL     1       3.980   3.931  16.411  0.00  0.00    +0.000 OA
ATOM      8  N   UNL     1       5.589   4.011  18.472  0.00  0.00    +0.000 NA
ATOM      9  H   UNL     1       5.859   3.117  18.082  0.00  0.00    +0.000 HD
ENDROOT
BRANCH   6  10
ATOM     10  C   UNL     1       2.902   4.123  18.977  0.00  0.00    +0.000 A 
ATOM     11  C   UNL     1       1.821   3.327  18.560  0.00  0.00    +0.000 A 
ATOM     12  C   UNL     1       0.918   2.805  19.482  0.00  0.00    +0.000 A 
ATOM     13  C   UNL     1       1.075   3.086  20.835  0.00  0.00    +0.000 A 
ATOM     14  C   UNL     1       2.114   3.916  21.260  0.00  0.00    +0.000 A 
ATOM     15  C   UNL     1       3.022   4.438  20.334  0.00  0.00    +0.000 A 
ENDBRANCH   6  10
TORSDOF 1
ENDMDL
MODEL 6
REMARK VINA RESULT:      -6.4      1.726      2.377
REMARK  Name = 
REMARK  3 active torsions:
REMARK  status: ('A' for Active; 'I' for Inactive)
REMARK    1  A    between atoms: C_1  and  C_2
REMARK    2  A    between atoms: C_2  and  C_3
REMARK    3  A    between atoms: P_6  and  C_8
REMARK                            x       y       z     vdW  Elec       q    Type
REMARK                         _______ _______ _______ _____ _____    ______ ____
ROOT
ATOM      1  C   UNL     1       6.946   6.968  17.256  0.00  0.00    +0.000 C 
ATOM      2  C   UNL     1       5.737   6.093  16.927  0.00  0.00    +0.000 C 
ATOM      3  C   UNL     1       4.890   6.735  15.825  0.00  0.00    +0.000 C 
ATOM      4  C   UNL     1       6.147   4.654  16.492  0.00  0.00    +0.000 C 
ATOM      5  O   UNL     1       5.096   3.790  16.972  0.00  0.00    +0.000 OA
ATOM      6  P   UNL     1       4.751   4.318  18.470  0.00  0.00    +0.000 P 
ATOM      7  O   UNL     1       5.794   3.858  19.448  0.00  0.00    +0.000 OA
ATOM      8  N   UNL     1       4.903   5.935  18.131  0.00  0.00    +0.000 NA
ATOM      9  H   UNL     1       5.313   6.405  18.929  0.00  0.00    +0.000 HD
ENDROOT
BRANCH   6  10
ATOM     10  C   UNL     1       3.067   4.058  18.896  0.00  0.00    +0.000 A 
ATOM     11  C   UNL     1       2.363   3.061  18.196  0.00  0.00    +0.000 A 
ATOM     12  C   UNL     1       1.109   2.636  18.623  0.00  0.00    +0.000 A 
ATOM     13  C   UNL     1       0.531   3.214  19.749  0.00  0.00    +0.000 A 
ATOM     14  C   UNL     1       1.194   4.240  20.424  0.00  0.00    +0.000 A 
ATOM     15  C   UNL     1       2.455   4.666  19.997  0.00  0.00    +0.000 A 
ENDBRANCH   6  10
TORSDOF 1
ENDMDL
MODEL 7
REMARK VINA RESULT:      -6.4      3.298      6.185
REMARK  Name = 
REMARK  3 active torsions:
REMARK  status: ('A' for Active; 'I' for Inactive)
REMARK    1  A    between atoms: C_1  and  C_2
REMARK    2  A    between atoms: C_2  and  C_3
REMARK    3  A    between atoms: P_6  and  C_8
REMARK                            x       y       z     vdW  Elec       q    Type
REMARK                         _______ _______ _______ _____ _____    ______ ____
ROOT
ATOM      1  C   UNL     1       4.546   3.248  19.157  0.00  0.00    +0.000 C 
ATOM      2  C   UNL     1       4.462   4.105  17.895  0.00  0.00    +0.000 C 
ATOM      3  C   UNL     1       3.023   4.163  17.376  0.00  0.00    +0.000 C 
ATOM      4  C   UNL     1       4.989   5.553  18.125  0.00  0.00    +0.000 C 
ATOM      5  O   UNL     1       5.590   5.949  16.875  0.00  0.00    +0.000 OA
ATOM      6  P   UNL     1       6.428   4.653  16.365  0.00  0.00    +0.000 P 
ATOM      7  O   UNL     1       7.716   4.522  17.127  0.00  0.00    +0.000 OA
ATOM      8  N   UNL     1       5.316   3.519  16.847  0.00  0.00    +0.000 NA
ATOM      9  H   UNL     1       5.804   2.698  17.184  0.00  0.00    +0.000 HD
ENDROOT
BRANCH   6  10
ATOM     10  C   UNL     1       6.506   4.557  14.613  0.00  0.00    +0.000 A 
ATOM     11  C   UNL     1       7.544   5.253  13.967  0.00  0.00    +0.000 A 
ATOM     12  C   UNL     1       7.814   5.045  12.618  0.00  0.00    +0.000 A 
ATOM     13  C   UNL     1       7.037   4.149  11.890  0.00  0.00    +0.000 A 
ATOM     14  C   UNL     1       5.972   3.489  12.504  0.00  0.00    +0.000 A 
ATOM     15  C   UNL     1       5.702   3.696  13.860  0.00  0.00    +0.000 A 
ENDBRANCH   6  10
TORSDOF 1
ENDMDL
MODEL 8
REMARK VINA RESULT:      -6.4      0.513      1.384
REMARK  Name = 
REMARK  3 active torsions:
REMARK  status: ('A' for Active; 'I' for Inactive)
REMARK    1  A    between atoms: C_1  and  C_2
REMARK    2  A    between atoms: C_2  and  C_3
REMARK    3  A    between atoms: P_6  and  C_8
REMARK                            x       y       z     vdW  Elec       q    Type
REMARK                         _______ _______ _______ _____ _____    ______ ____
ROOT
ATOM      1  C   UNL     1       7.190   4.467  16.486  0.00  0.00    +0.000 C 
ATOM      2  C   UNL     1       6.201   5.034  17.503  0.00  0.00    +0.000 C 
ATOM      3  C   UNL     1       6.942   5.773  18.621  0.00  0.00    +0.000 C 
ATOM      4  C   UNL     1       5.162   5.993  16.850  0.00  0.00    +0.000 C 
ATOM      5  O   UNL     1       3.943   5.813  17.601  0.00  0.00    +0.000 OA
ATOM      6  P   UNL     1       3.811   4.210  17.837  0.00  0.00    +0.000 P 
ATOM      7  O   UNL     1       3.330   3.529  16.588  0.00  0.00    +0.000 OA
ATOM      8  N   UNL     1       5.426   3.933  18.099  0.00  0.00    +0.000 NA
ATOM      9  H   UNL     1       5.679   3.040  17.694  0.00  0.00    +0.000 HD
ENDROOT
BRANCH   6  10
ATOM     10  C   UNL     1       2.991   3.824  19.341  0.00  0.00    +0.000 A 
ATOM     11  C   UNL     1       1.674   4.291  19.505  0.00  0.00    +0.000 A 
ATOM     12  C   UNL     1       0.880   3.839  20.555  0.00  0.00    +0.000 A 
ATOM     13  C   UNL     1       1.398   2.926  21.467  0.00  0.00    +0.000 A 
ATOM     14  C   UNL     1       2.720   2.493  21.349  0.00  0.00    +0.000 A 
ATOM     15  C   UNL     1       3.516   2.944  20.292  0.00  0.00    +0.000 A 
ENDBRANCH   6  10
TORSDOF 1
ENDMDL
MODEL 9
REMARK VINA RESULT:      -6.3      1.852      5.117
REMARK  Name = 
REMARK  3 active torsions:
REMARK  status: ('A' for Active; 'I' for Inactive)
REMARK    1  A    between atoms: C_1  and  C_2
REMARK    2  A    between atoms: C_2  and  C_3
REMARK    3  A    between atoms: P_6  and  C_8
REMARK                            x       y       z     vdW  Elec       q    Type
REMARK                         _______ _______ _______ _____ _____    ______ ____
ROOT
ATOM      1  C   UNL     1       1.883   2.048  18.102  0.00  0.00    +0.000 C 
ATOM      2  C   UNL     1       2.315   3.481  18.410  0.00  0.00    +0.000 C 
ATOM      3  C   UNL     1       1.423   4.484  17.671  0.00  0.00    +0.000 C 
ATOM      4  C   UNL     1       2.291   3.794  19.935  0.00  0.00    +0.000 C 
ATOM      5  O   UNL     1       3.372   4.724  20.157  0.00  0.00    +0.000 OA
ATOM      6  P   UNL     1       4.615   4.164  19.273  0.00  0.00    +0.000 P 
ATOM      7  O   UNL     1       5.268   2.996  19.957  0.00  0.00    +0.000 OA
ATOM      8  N   UNL     1       3.707   3.678  17.972  0.00  0.00    +0.000 NA
ATOM      9  H   UNL     1       4.100   2.826  17.592  0.00  0.00    +0.000 HD
ENDROOT
BRANCH   6  10
ATOM     10  C   UNL     1       5.657   5.455  18.697  0.00  0.00    +0.000 A 
ATOM     11  C   UNL     1       6.936   5.567  19.272  0.00  0.00    +0.000 A 
ATOM     12  C   UNL     1       7.899   6.405  18.718  0.00  0.00    +0.000 A 
ATOM     13  C   UNL     1       7.590   7.158  17.590  0.00  0.00    +0.000 A 
ATOM     14  C   UNL     1       6.310   7.097  17.038  0.00  0.00    +0.000 A 
ATOM     15  C   UNL     1       5.343   6.253  17.593  0.00  0.00    +0.000 A 
ENDBRANCH   6  10
TORSDOF 1
ENDMDL
