MODEL 1
REMARK VINA RESULT:      -6.6      0.000      0.000
REMARK  Name = 
REMARK  9 active torsions:
REMARK  status: ('A' for Active; 'I' for Inactive)
REMARK    1  A    between atoms: C_1  and  C_2
REMARK    2  A    between atoms: C_5  and  N_6
REMARK    3  A    between atoms: N_9  and  C_10
REMARK    4  A    between atoms: C_10  and  C_11
REMARK    5  A    between atoms: C_11  and  O_12
REMARK    6  A    between atoms: O_12  and  C_13
REMARK    7  A    between atoms: N_15  and  C_16
REMARK    8  A    between atoms: C_16  and  N_17
REMARK    9  A    between atoms: C_16  and  C_25
REMARK                            x       y       z     vdW  Elec       q    Type
REMARK                         _______ _______ _______ _____ _____    ______ ____
ROOT
ATOM      1  C   UNL     1       2.343   9.013  17.995  0.00  0.00    +0.000 C 
ATOM      2  O   UNL     1       2.493  10.178  17.653  0.00  0.00    +0.000 OA
ATOM      3  N   UNL     1       3.144   8.034  17.505  0.00  0.00    +0.000 N 
ATOM      4  H   UNL     1       3.810   8.383  16.835  0.00  0.00    +0.000 HD
ENDROOT
BRANCH   1   5
ATOM      5  O   UNL     1       1.268   8.546  18.673  0.00  0.00    +0.000 OA
BRANCH   5   6
ATOM      6  C   UNL     1       1.176   9.118  19.996  0.00  0.00    +0.000 C 
BRANCH   6   7
ATOM      7  C   UNL     1      -0.221   9.731  20.158  0.00  0.00    +0.000 C 
BRANCH   7  13
ATOM      8  C   UNL     1      -1.676  10.102  17.486  0.00  0.00    +0.000 C 
ATOM      9  C   UNL     1      -1.095  11.194  18.314  0.00  0.00    +0.000 A 
ATOM     10  N   UNL     1      -1.173  12.477  18.015  0.00  0.00    +0.000 NA
ATOM     11  C   UNL     1      -0.533  13.144  19.022  0.00  0.00    +0.000 A 
ATOM     12  C   UNL     1      -0.050  12.256  19.949  0.00  0.00    +0.000 A 
ATOM     13  N   UNL     1      -0.404  11.006  19.502  0.00  0.00    +0.000 N 
BRANCH  12  14
ATOM     14  N   UNL     1       0.674  12.558  21.135  0.00  0.00    +0.000 N 
ATOM     15  O   UNL     1       0.009  12.699  22.167  0.00  0.00    +0.000 OA
ATOM     16  O   UNL     1       1.902  12.675  21.052  0.00  0.00    +0.000 OA
ENDBRANCH  12  14
ENDBRANCH   7  13
ENDBRANCH   6   7
ENDBRANCH   5   6
ENDBRANCH   1   5
BRANCH   3  17
ATOM     17  C   UNL     1       3.520   6.834  18.231  0.00  0.00    +0.000 C 
BRANCH  17  18
ATOM     18  N   UNL     1       2.368   5.971  17.995  0.00  0.00    +0.000 N 
ATOM     19  C   UNL     1       2.109   5.050  18.990  0.00  0.00    +0.000 A 
ATOM     20  N   UNL     1       2.417   5.324  20.265  0.00  0.00    +0.000 NA
ATOM     21  C   UNL     1       2.104   4.412  21.198  0.00  0.00    +0.000 A 
ATOM     22  C   UNL     1       1.522   3.211  20.901  0.00  0.00    +0.000 A 
ATOM     23  C   UNL     1       1.274   3.022  19.566  0.00  0.00    +0.000 A 
ATOM     24 CL   UNL     1       0.564   1.561  19.011  0.00  0.00    +0.000 Cl
ATOM     25  N   UNL     1       1.550   3.906  18.595  0.00  0.00    +0.000 NA
ATOM     26  H   UNL     1       2.374   5.448  17.124  0.00  0.00    +0.000 HD
ENDBRANCH  17  18
BRANCH  17  27
ATOM     27  C   UNL     1       4.934   6.224  17.768  0.00  0.00    +0.000 C 
ATOM     28 CL   UNL     1       6.080   7.505  17.175  0.00  0.00    +0.000 Cl
ATOM     29 CL   UNL     1       5.750   5.376  19.123  0.00  0.00    +0.000 Cl
ATOM     30 CL   UNL     1       4.788   5.060  16.388  0.00  0.00    +0.000 Cl
ENDBRANCH  17  27
ENDBRANCH   3  17
TORSDOF 8
ENDMDL
MODEL 2
REMARK VINA RESULT:      -6.6      4.050      8.000
REMARK  Name = 
REMARK  9 active torsions:
REMARK  status: ('A' for Active; 'I' for Inactive)
REMARK    1  A    between atoms: C_1  and  C_2
REMARK    2  A    between atoms: C_5  and  N_6
REMARK    3  A    between atoms: N_9  and  C_10
REMARK    4  A    between atoms: C_10  and  C_11
REMARK    5  A    between atoms: C_11  and  O_12
REMARK    6  A    between atoms: O_12  and  C_13
REMARK    7  A    between atoms: N_15  and  C_16
REMARK    8  A    between atoms: C_16  and  N_17
REMARK    9  A    between atoms: C_16  and  C_25
REMARK                            x       y       z     vdW  Elec       q    Type
REMARK                         _______ _______ _______ _____ _____    ______ ____
ROOT
ATOM      1  C   UNL     1       1.442   8.821  19.375  0.00  0.00    +0.000 C 
ATOM      2  O   UNL     1       1.964   8.277  20.340  0.00  0.00    +0.000 OA
ATOM      3  N   UNL     1       0.342   9.601  19.525  0.00  0.00    +0.000 N 
ATOM      4  H   UNL     1       0.020   9.631  20.479  0.00  0.00    +0.000 HD
ENDROOT
BRANCH   1   5
ATOM      5  O   UNL     1       1.732   8.533  18.084  0.00  0.00    +0.000 OA
BRANCH   5   6
ATOM      6  C   UNL     1       3.063   7.994  17.938  0.00  0.00    +0.000 C 
BRANCH   6   7
ATOM      7  C   UNL     1       2.951   6.471  17.795  0.00  0.00    +0.000 C 
BRANCH   7  13
ATOM      8  C   UNL     1       2.963   4.451  20.100  0.00  0.00    +0.000 C 
ATOM      9  C   UNL     1       4.129   4.787  19.239  0.00  0.00    +0.000 A 
ATOM     10  N   UNL     1       5.316   4.219  19.337  0.00  0.00    +0.000 NA
ATOM     11  C   UNL     1       6.095   4.790  18.370  0.00  0.00    +0.000 A 
ATOM     12  C   UNL     1       5.377   5.728  17.674  0.00  0.00    +0.000 A 
ATOM     13  N   UNL     1       4.118   5.734  18.224  0.00  0.00    +0.000 N 
BRANCH  12  14
ATOM     14  N   UNL     1       5.835   6.539  16.598  0.00  0.00    +0.000 N 
ATOM     15  O   UNL     1       6.624   7.445  16.887  0.00  0.00    +0.000 OA
ATOM     16  O   UNL     1       5.405   6.297  15.466  0.00  0.00    +0.000 OA
ENDBRANCH  12  14
ENDBRANCH   7  13
ENDBRANCH   6   7
ENDBRANCH   5   6
ENDBRANCH   1   5
BRANCH   3  17
ATOM     17  C   UNL     1       0.024  10.749  18.695  0.00  0.00    +0.000 C 
BRANCH  17  18
ATOM     18  N   UNL     1      -1.396  10.933  18.973  0.00  0.00    +0.000 N 
ATOM     19  C   UNL     1      -2.230  10.810  17.880  0.00  0.00    +0.000 A 
ATOM     20  N   UNL     1      -1.905   9.995  16.868  0.00  0.00    +0.000 NA
ATOM     21  C   UNL     1      -2.774   9.879  15.851  0.00  0.00    +0.000 A 
ATOM     22  C   UNL     1      -3.946  10.579  15.788  0.00  0.00    +0.000 A 
ATOM     23  C   UNL     1      -4.168  11.402  16.862  0.00  0.00    +0.000 A 
ATOM     24 CL   UNL     1      -5.583  12.370  16.939  0.00  0.00    +0.000 Cl
ATOM     25  N   UNL     1      -3.344  11.543  17.911  0.00  0.00    +0.000 NA
ATOM     26  H   UNL     1      -1.652  11.806  19.424  0.00  0.00    +0.000 HD
ENDBRANCH  17  18
BRANCH  17  27
ATOM     27  C   UNL     1       0.949  12.030  18.997  0.00  0.00    +0.000 C 
ATOM     28 CL   UNL     1       2.512  11.989  18.070  0.00  0.00    +0.000 Cl
ATOM     29 CL   UNL     1       0.112  13.554  18.550  0.00  0.00    +0.000 Cl
ATOM     30 CL   UNL     1       1.445  12.155  20.735  0.00  0.00    +0.000 Cl
ENDBRANCH  17  27
ENDBRANCH   3  17
TORSDOF 8
ENDMDL
MODEL 3
REMARK VINA RESULT:      -6.6      0.417      1.187
REMARK  Name = 
REMARK  9 active torsions:
REMARK  status: ('A' for Active; 'I' for Inactive)
REMARK    1  A    between atoms: C_1  and  C_2
REMARK    2  A    between atoms: C_5  and  N_6
REMARK    3  A    between atoms: N_9  and  C_10
REMARK    4  A    between atoms: C_10  and  C_11
REMARK    5  A    between atoms: C_11  and  O_12
REMARK    6  A    between atoms: O_12  and  C_13
REMARK    7  A    between atoms: N_15  and  C_16
REMARK    8  A    between atoms: C_16  and  N_17
REMARK    9  A    between atoms: C_16  and  C_25
REMARK                            x       y       z     vdW  Elec       q    Type
REMARK                         _______ _______ _______ _____ _____    ______ ____
ROOT
ATOM      1  C   UNL     1       2.352   9.121  17.950  0.00  0.00    +0.000 C 
ATOM      2  O   UNL     1       2.518  10.287  17.617  0.00  0.00    +0.000 OA
ATOM      3  N   UNL     1       3.165   8.140  17.484  0.00  0.00    +0.000 N 
ATOM      4  H   UNL     1       3.854   8.489  16.837  0.00  0.00    +0.000 HD
ENDROOT
BRANCH   1   5
ATOM      5  O   UNL     1       1.253   8.657  18.591  0.00  0.00    +0.000 OA
BRANCH   5   6
ATOM      6  C   UNL     1       1.188   9.124  19.956  0.00  0.00    +0.000 C 
BRANCH   6   7
ATOM      7  C   UNL     1      -0.175   9.794  20.169  0.00  0.00    +0.000 C 
BRANCH   7  13
ATOM      8  C   UNL     1      -2.206   9.907  17.876  0.00  0.00    +0.000 C 
ATOM      9  C   UNL     1      -1.356  11.040  18.336  0.00  0.00    +0.000 A 
ATOM     10  N   UNL     1      -1.404  12.259  17.833  0.00  0.00    +0.000 NA
ATOM     11  C   UNL     1      -0.487  12.996  18.529  0.00  0.00    +0.000 A 
ATOM     12  C   UNL     1       0.137  12.215  19.468  0.00  0.00    +0.000 A 
ATOM     13  N   UNL     1      -0.412  10.961  19.350  0.00  0.00    +0.000 N 
BRANCH  12  14
ATOM     14  N   UNL     1       1.151  12.613  20.383  0.00  0.00    +0.000 N 
ATOM     15  O   UNL     1       2.262  12.862  19.901  0.00  0.00    +0.000 OA
ATOM     16  O   UNL     1       0.862  12.665  21.583  0.00  0.00    +0.000 OA
ENDBRANCH  12  14
ENDBRANCH   7  13
ENDBRANCH   6   7
ENDBRANCH   5   6
ENDBRANCH   1   5
BRANCH   3  17
ATOM     17  C   UNL     1       3.512   6.937  18.218  0.00  0.00    +0.000 C 
BRANCH  17  18
ATOM     18  N   UNL     1       2.342   6.098  17.983  0.00  0.00    +0.000 N 
ATOM     19  C   UNL     1       2.077   5.168  18.968  0.00  0.00    +0.000 A 
ATOM     20  N   UNL     1       2.402   5.419  20.243  0.00  0.00    +0.000 NA
ATOM     21  C   UNL     1       2.081   4.500  21.166  0.00  0.00    +0.000 A 
ATOM     22  C   UNL     1       1.476   3.313  20.858  0.00  0.00    +0.000 A 
ATOM     23  C   UNL     1       1.211   3.147  19.524  0.00  0.00    +0.000 A 
ATOM     24 CL   UNL     1       0.470   1.707  18.956  0.00  0.00    +0.000 Cl
ATOM     25  N   UNL     1       1.494   4.039  18.562  0.00  0.00    +0.000 NA
ATOM     26  H   UNL     1       2.330   5.587  17.104  0.00  0.00    +0.000 HD
ENDBRANCH  17  18
BRANCH  17  27
ATOM     27  C   UNL     1       4.915   6.294  17.765  0.00  0.00    +0.000 C 
ATOM     28 CL   UNL     1       5.727   5.383  19.112  0.00  0.00    +0.000 Cl
ATOM     29 CL   UNL     1       4.690   5.139  16.408  0.00  0.00    +0.000 Cl
ATOM     30 CL   UNL     1       6.129   7.533  17.246  0.00  0.00    +0.000 Cl
ENDBRANCH  17  27
ENDBRANCH   3  17
TORSDOF 8
ENDMDL
MODEL 4
REMARK VINA RESULT:      -6.5      4.071      8.073
REMARK  Name = 
REMARK  9 active torsions:
REMARK  status: ('A' for Active; 'I' for Inactive)
REMARK    1  A    between atoms: C_1  and  C_2
REMARK    2  A    between atoms: C_5  and  N_6
REMARK    3  A    between atoms: N_9  and  C_10
REMARK    4  A    between atoms: C_10  and  C_11
REMARK    5  A    between atoms: C_11  and  O_12
REMARK    6  A    between atoms: O_12  and  C_13
REMARK    7  A    between atoms: N_15  and  C_16
REMARK    8  A    between atoms: C_16  and  N_17
REMARK    9  A    between atoms: C_16  and  C_25
REMARK                            x       y       z     vdW  Elec       q    Type
REMARK                         _______ _______ _______ _____ _____    ______ ____
ROOT
ATOM      1  C   UNL     1       1.205   9.036  20.276  0.00  0.00    +0.000 C 
ATOM      2  O   UNL     1       1.620   8.704  21.379  0.00  0.00    +0.000 OA
ATOM      3  N   UNL     1       0.028   9.698  20.143  0.00  0.00    +0.000 N 
ATOM      4  H   UNL     1      -0.438   9.831  21.026  0.00  0.00    +0.000 HD
ENDROOT
BRANCH   1   5
ATOM      5  O   UNL     1       1.715   8.595  19.101  0.00  0.00    +0.000 OA
BRANCH   5   6
ATOM      6  C   UNL     1       2.404   7.334  19.253  0.00  0.00    +0.000 C 
BRANCH   6   7
ATOM      7  C   UNL     1       3.027   6.962  17.902  0.00  0.00    +0.000 C 
BRANCH   7  13
ATOM      8  C   UNL     1       6.039   6.565  17.502  0.00  0.00    +0.000 C 
ATOM      9  C   UNL     1       5.046   5.479  17.730  0.00  0.00    +0.000 A 
ATOM     10  N   UNL     1       5.351   4.199  17.831  0.00  0.00    +0.000 NA
ATOM     11  C   UNL     1       4.173   3.541  18.047  0.00  0.00    +0.000 A 
ATOM     12  C   UNL     1       3.130   4.430  18.073  0.00  0.00    +0.000 A 
ATOM     13  N   UNL     1       3.679   5.673  17.870  0.00  0.00    +0.000 N 
BRANCH  12  14
ATOM     14  N   UNL     1       1.752   4.135  18.269  0.00  0.00    +0.000 N 
ATOM     15  O   UNL     1       1.394   3.915  19.431  0.00  0.00    +0.000 OA
ATOM     16  O   UNL     1       1.019   4.102  17.275  0.00  0.00    +0.000 OA
ENDBRANCH  12  14
ENDBRANCH   7  13
ENDBRANCH   6   7
ENDBRANCH   5   6
ENDBRANCH   1   5
BRANCH   3  17
ATOM     17  C   UNL     1      -0.262  10.666  19.101  0.00  0.00    +0.000 C 
BRANCH  17  18
ATOM     18  N   UNL     1      -1.707  10.816  19.229  0.00  0.00    +0.000 N 
ATOM     19  C   UNL     1      -2.409  10.796  18.041  0.00  0.00    +0.000 A 
ATOM     20  N   UNL     1      -1.958  10.082  17.000  0.00  0.00    +0.000 NA
ATOM     21  C   UNL     1      -2.703  10.062  15.883  0.00  0.00    +0.000 A 
ATOM     22  C   UNL     1      -3.870  10.760  15.752  0.00  0.00    +0.000 A 
ATOM     23  C   UNL     1      -4.226  11.475  16.866  0.00  0.00    +0.000 A 
ATOM     24 CL   UNL     1      -5.655  12.426  16.871  0.00  0.00    +0.000 Cl
ATOM     25  N   UNL     1      -3.529  11.518  18.012  0.00  0.00    +0.000 NA
ATOM     26  H   UNL     1      -2.027  11.642  19.728  0.00  0.00    +0.000 HD
ENDBRANCH  17  18
BRANCH  17  27
ATOM     27  C   UNL     1       0.581  12.028  19.243  0.00  0.00    +0.000 C 
ATOM     28 CL   UNL     1       0.952  12.435  20.976  0.00  0.00    +0.000 Cl
ATOM     29 CL   UNL     1       2.152  11.912  18.382  0.00  0.00    +0.000 Cl
ATOM     30 CL   UNL     1      -0.299  13.477  18.606  0.00  0.00    +0.000 Cl
ENDBRANCH  17  27
ENDBRANCH   3  17
TORSDOF 8
ENDMDL
MODEL 5
REMARK VINA RESULT:      -6.5      1.977      3.889
REMARK  Name = 
REMARK  9 active torsions:
REMARK  status: ('A' for Active; 'I' for Inactive)
REMARK    1  A    between atoms: C_1  and  C_2
REMARK    2  A    between atoms: C_5  and  N_6
REMARK    3  A    between atoms: N_9  and  C_10
REMARK    4  A    between atoms: C_10  and  C_11
REMARK    5  A    between atoms: C_11  and  O_12
REMARK    6  A    between atoms: O_12  and  C_13
REMARK    7  A    between atoms: N_15  and  C_16
REMARK    8  A    between atoms: C_16  and  N_17
REMARK    9  A    between atoms: C_16  and  C_25
REMARK                            x       y       z     vdW  Elec       q    Type
REMARK                         _______ _______ _______ _____ _____    ______ ____
ROOT
ATOM      1  C   UNL     1       1.433   7.422  20.579  0.00  0.00    +0.000 C 
ATOM      2  O   UNL     1       0.542   7.787  21.334  0.00  0.00    +0.000 OA
ATOM      3  N   UNL     1       1.997   6.195  20.707  0.00  0.00    +0.000 N 
ATOM      4  H   UNL     1       1.623   5.681  21.488  0.00  0.00    +0.000 HD
ENDROOT
BRANCH   1   5
ATOM      5  O   UNL     1       2.099   8.239  19.728  0.00  0.00    +0.000 OA
BRANCH   5   6
ATOM      6  C   UNL     1       1.344   8.492  18.523  0.00  0.00    +0.000 C 
BRANCH   6   7
ATOM      7  C   UNL     1       1.245  10.010  18.329  0.00  0.00    +0.000 C 
BRANCH   7  13
ATOM      8  C   UNL     1      -1.539  10.012  17.050  0.00  0.00    +0.000 C 
ATOM      9  C   UNL     1      -1.196  10.596  18.375  0.00  0.00    +0.000 A 
ATOM     10  N   UNL     1      -2.069  11.157  19.191  0.00  0.00    +0.000 NA
ATOM     11  C   UNL     1      -1.364  11.551  20.293  0.00  0.00    +0.000 A 
ATOM     12  C   UNL     1      -0.037  11.233  20.148  0.00  0.00    +0.000 A 
ATOM     13  N   UNL     1       0.079  10.623  18.923  0.00  0.00    +0.000 N 
BRANCH  12  14
ATOM     14  N   UNL     1       1.014  11.482  21.074  0.00  0.00    +0.000 N 
ATOM     15  O   UNL     1       1.711  12.480  20.862  0.00  0.00    +0.000 OA
ATOM     16  O   UNL     1       1.168  10.685  22.005  0.00  0.00    +0.000 OA
ENDBRANCH  12  14
ENDBRANCH   7  13
ENDBRANCH   6   7
ENDBRANCH   5   6
ENDBRANCH   1   5
BRANCH   3  17
ATOM     17  C   UNL     1       2.528   5.411  19.607  0.00  0.00    +0.000 C 
BRANCH  17  18
ATOM     18  N   UNL     1       3.965   5.599  19.774  0.00  0.00    +0.000 N 
ATOM     19  C   UNL     1       4.708   5.517  18.614  0.00  0.00    +0.000 A 
ATOM     20  N   UNL     1       4.176   5.882  17.440  0.00  0.00    +0.000 NA
ATOM     21  C   UNL     1       4.957   5.824  16.350  0.00  0.00    +0.000 A 
ATOM     22  C   UNL     1       6.248   5.376  16.381  0.00  0.00    +0.000 A 
ATOM     23  C   UNL     1       6.684   5.004  17.626  0.00  0.00    +0.000 A 
ATOM     24 CL   UNL     1       8.275   4.399  17.847  0.00  0.00    +0.000 Cl
ATOM     25  N   UNL     1       5.953   5.058  18.749  0.00  0.00    +0.000 NA
ATOM     26  H   UNL     1       4.420   4.985  20.442  0.00  0.00    +0.000 HD
ENDBRANCH  17  18
BRANCH  17  27
ATOM     27  C   UNL     1       2.036   3.880  19.618  0.00  0.00    +0.000 C 
ATOM     28 CL   UNL     1       1.931   3.174  17.946  0.00  0.00    +0.000 Cl
ATOM     29 CL   UNL     1       3.162   2.844  20.557  0.00  0.00    +0.000 Cl
ATOM     30 CL   UNL     1       0.376   3.672  20.313  0.00  0.00    +0.000 Cl
ENDBRANCH  17  27
ENDBRANCH   3  17
TORSDOF 8
ENDMDL
MODEL 6
REMARK VINA RESULT:      -6.5      4.241      7.964
REMARK  Name = 
REMARK  9 active torsions:
REMARK  status: ('A' for Active; 'I' for Inactive)
REMARK    1  A    between atoms: C_1  and  C_2
REMARK    2  A    between atoms: C_5  and  N_6
REMARK    3  A    between atoms: N_9  and  C_10
REMARK    4  A    between atoms: C_10  and  C_11
REMARK    5  A    between atoms: C_11  and  O_12
REMARK    6  A    between atoms: O_12  and  C_13
REMARK    7  A    between atoms: N_15  and  C_16
REMARK    8  A    between atoms: C_16  and  N_17
REMARK    9  A    between atoms: C_16  and  C_25
REMARK                            x       y       z     vdW  Elec       q    Type
REMARK                         _______ _______ _______ _____ _____    ______ ____
ROOT
ATOM      1  C   UNL     1       5.314   4.699  18.812  0.00  0.00    +0.000 C 
ATOM      2  O   UNL     1       6.504   4.673  19.100  0.00  0.00    +0.000 OA
ATOM      3  N   UNL     1       4.372   4.298  19.702  0.00  0.00    +0.000 N 
ATOM      4  H   UNL     1       4.776   3.964  20.562  0.00  0.00    +0.000 HD
ENDROOT
BRANCH   1   5
ATOM      5  O   UNL     1       4.833   4.886  17.559  0.00  0.00    +0.000 OA
BRANCH   5   6
ATOM      6  C   UNL     1       5.072   3.739  16.714  0.00  0.00    +0.000 C 
BRANCH   6   7
ATOM      7  C   UNL     1       4.712   4.122  15.274  0.00  0.00    +0.000 C 
BRANCH   7  13
ATOM      8  C   UNL     1       4.665   3.318  12.317  0.00  0.00    +0.000 C 
ATOM      9  C   UNL     1       5.822   3.927  13.030  0.00  0.00    +0.000 A 
ATOM     10  N   UNL     1       6.970   4.237  12.458  0.00  0.00    +0.000 NA
ATOM     11  C   UNL     1       7.752   4.778  13.440  0.00  0.00    +0.000 A 
ATOM     12  C   UNL     1       7.076   4.793  14.632  0.00  0.00    +0.000 A 
ATOM     13  N   UNL     1       5.840   4.248  14.379  0.00  0.00    +0.000 N 
BRANCH  12  14
ATOM     14  N   UNL     1       7.550   5.272  15.885  0.00  0.00    +0.000 N 
ATOM     15  O   UNL     1       8.064   4.436  16.637  0.00  0.00    +0.000 OA
ATOM     16  O   UNL     1       7.402   6.471  16.141  0.00  0.00    +0.000 OA
ENDBRANCH  12  14
ENDBRANCH   7  13
ENDBRANCH   6   7
ENDBRANCH   5   6
ENDBRANCH   1   5
BRANCH   3  17
ATOM     17  C   UNL     1       3.028   4.839  19.781  0.00  0.00    +0.000 C 
BRANCH  17  18
ATOM     18  N   UNL     1       3.201   6.156  19.178  0.00  0.00    +0.000 N 
ATOM     19  C   UNL     1       2.348   7.135  19.645  0.00  0.00    +0.000 A 
ATOM     20  N   UNL     1       1.895   7.095  20.906  0.00  0.00    +0.000 NA
ATOM     21  C   UNL     1       1.103   8.096  21.321  0.00  0.00    +0.000 A 
ATOM     22  C   UNL     1       0.713   9.124  20.510  0.00  0.00    +0.000 A 
ATOM     23  C   UNL     1       1.212   9.055  19.235  0.00  0.00    +0.000 A 
ATOM     24 CL   UNL     1       0.809  10.254  18.075  0.00  0.00    +0.000 Cl
ATOM     25  N   UNL     1       2.020   8.088  18.772  0.00  0.00    +0.000 NA
ATOM     26  H   UNL     1       3.142   6.193  18.164  0.00  0.00    +0.000 HD
ENDBRANCH  17  18
BRANCH  17  27
ATOM     27  C   UNL     1       1.922   3.908  19.078  0.00  0.00    +0.000 C 
ATOM     28 CL   UNL     1       0.437   3.699  20.105  0.00  0.00    +0.000 Cl
ATOM     29 CL   UNL     1       1.386   4.607  17.513  0.00  0.00    +0.000 Cl
ATOM     30 CL   UNL     1       2.508   2.223  18.764  0.00  0.00    +0.000 Cl
ENDBRANCH  17  27
ENDBRANCH   3  17
TORSDOF 8
ENDMDL
MODEL 7
REMARK VINA RESULT:      -6.4      4.103      8.035
REMARK  Name = 
REMARK  9 active torsions:
REMARK  status: ('A' for Active; 'I' for Inactive)
REMARK    1  A    between atoms: C_1  and  C_2
REMARK    2  A    between atoms: C_5  and  N_6
REMARK    3  A    between atoms: N_9  and  C_10
REMARK    4  A    between atoms: C_10  and  C_11
REMARK    5  A    between atoms: C_11  and  O_12
REMARK    6  A    between atoms: O_12  and  C_13
REMARK    7  A    between atoms: N_15  and  C_16
REMARK    8  A    between atoms: C_16  and  N_17
REMARK    9  A    between atoms: C_16  and  C_25
REMARK                            x       y       z     vdW  Elec       q    Type
REMARK                         _______ _______ _______ _____ _____    ______ ____
ROOT
ATOM      1  C   UNL     1       1.441   8.759  19.603  0.00  0.00    +0.000 C 
ATOM      2  O   UNL     1       1.955   8.299  20.615  0.00  0.00    +0.000 OA
ATOM      3  N   UNL     1       0.321   9.520  19.674  0.00  0.00    +0.000 N 
ATOM      4  H   UNL     1      -0.022   9.611  20.617  0.00  0.00    +0.000 HD
ENDROOT
BRANCH   1   5
ATOM      5  O   UNL     1       1.765   8.385  18.342  0.00  0.00    +0.000 OA
BRANCH   5   6
ATOM      6  C   UNL     1       2.882   7.470  18.321  0.00  0.00    +0.000 C 
BRANCH   6   7
ATOM      7  C   UNL     1       2.340   6.058  18.068  0.00  0.00    +0.000 C 
BRANCH   7  13
ATOM      8  C   UNL     1       1.319   4.480  20.489  0.00  0.00    +0.000 C 
ATOM      9  C   UNL     1       2.612   4.249  19.789  0.00  0.00    +0.000 A 
ATOM     10  N   UNL     1       3.470   3.297  20.104  0.00  0.00    +0.000 NA
ATOM     11  C   UNL     1       4.511   3.414  19.225  0.00  0.00    +0.000 A 
ATOM     12  C   UNL     1       4.290   4.458  18.364  0.00  0.00    +0.000 A 
ATOM     13  N   UNL     1       3.078   4.999  18.719  0.00  0.00    +0.000 N 
BRANCH  12  14
ATOM     14  N   UNL     1       5.140   4.901  17.313  0.00  0.00    +0.000 N 
ATOM     15  O   UNL     1       6.043   5.685  17.626  0.00  0.00    +0.000 OA
ATOM     16  O   UNL     1       4.912   4.491  16.170  0.00  0.00    +0.000 OA
ENDBRANCH  12  14
ENDBRANCH   7  13
ENDBRANCH   6   7
ENDBRANCH   5   6
ENDBRANCH   1   5
BRANCH   3  17
ATOM     17  C   UNL     1      -0.005  10.597  18.757  0.00  0.00    +0.000 C 
BRANCH  17  18
ATOM     18  N   UNL     1      -1.429  10.785  19.014  0.00  0.00    +0.000 N 
ATOM     19  C   UNL     1      -2.240  10.739  17.898  0.00  0.00    +0.000 A 
ATOM     20  N   UNL     1      -1.903   9.981  16.846  0.00  0.00    +0.000 NA
ATOM     21  C   UNL     1      -2.749   9.939  15.804  0.00  0.00    +0.000 A 
ATOM     22  C   UNL     1      -3.910  10.659  15.758  0.00  0.00    +0.000 A 
ATOM     23  C   UNL     1      -4.145  11.420  16.873  0.00  0.00    +0.000 A 
ATOM     24 CL   UNL     1      -5.549  12.402  16.977  0.00  0.00    +0.000 Cl
ATOM     25  N   UNL     1      -3.344  11.485  17.947  0.00  0.00    +0.000 NA
ATOM     26  H   UNL     1      -1.684  11.634  19.511  0.00  0.00    +0.000 HD
ENDBRANCH  17  18
BRANCH  17  27
ATOM     27  C   UNL     1       0.903  11.908  18.963  0.00  0.00    +0.000 C 
ATOM     28 CL   UNL     1       1.367  12.162  20.703  0.00  0.00    +0.000 Cl
ATOM     29 CL   UNL     1       2.428  11.795  18.023  0.00  0.00    +0.000 Cl
ATOM     30 CL   UNL     1       0.062  13.438  18.481  0.00  0.00    +0.000 Cl
ENDBRANCH  17  27
ENDBRANCH   3  17
TORSDOF 8
ENDMDL
MODEL 8
REMARK VINA RESULT:      -6.4      1.632      2.274
REMARK  Name = 
REMARK  9 active torsions:
REMARK  status: ('A' for Active; 'I' for Inactive)
REMARK    1  A    between atoms: C_1  and  C_2
REMARK    2  A    between atoms: C_5  and  N_6
REMARK    3  A    between atoms: N_9  and  C_10
REMARK    4  A    between atoms: C_10  and  C_11
REMARK    5  A    between atoms: C_11  and  O_12
REMARK    6  A    between atoms: O_12  and  C_13
REMARK    7  A    between atoms: N_15  and  C_16
REMARK    8  A    between atoms: C_16  and  N_17
REMARK    9  A    between atoms: C_16  and  C_25
REMARK                            x       y       z     vdW  Elec       q    Type
REMARK                         _______ _______ _______ _____ _____    ______ ____
ROOT
ATOM      1  C   UNL     1       2.420   9.113  17.953  0.00  0.00    +0.000 C 
ATOM      2  O   UNL     1       2.626  10.227  17.490  0.00  0.00    +0.000 OA
ATOM      3  N   UNL     1       3.060   8.023  17.459  0.00  0.00    +0.000 N 
ATOM      4  H   UNL     1       3.660   8.250  16.683  0.00  0.00    +0.000 HD
ENDROOT
BRANCH   1   5
ATOM      5  O   UNL     1       1.406   8.810  18.799  0.00  0.00    +0.000 OA
BRANCH   5   6
ATOM      6  C   UNL     1       1.171   9.865  19.757  0.00  0.00    +0.000 C 
BRANCH   6   7
ATOM      7  C   UNL     1      -0.343  10.069  19.885  0.00  0.00    +0.000 C 
BRANCH   7  13
ATOM      8  C   UNL     1      -1.450  12.897  19.479  0.00  0.00    +0.000 C 
ATOM      9  C   UNL     1      -1.289  12.211  20.790  0.00  0.00    +0.000 A 
ATOM     10  N   UNL     1      -1.646  12.729  21.950  0.00  0.00    +0.000 NA
ATOM     11  C   UNL     1      -1.346  11.790  22.897  0.00  0.00    +0.000 A 
ATOM     12  C   UNL     1      -0.790  10.683  22.308  0.00  0.00    +0.000 A 
ATOM     13  N   UNL     1      -0.748  10.945  20.961  0.00  0.00    +0.000 N 
BRANCH  12  14
ATOM     14  N   UNL     1      -0.342   9.498  22.955  0.00  0.00    +0.000 N 
ATOM     15  O   UNL     1       0.522   9.638  23.828  0.00  0.00    +0.000 OA
ATOM     16  O   UNL     1      -0.827   8.421  22.593  0.00  0.00    +0.000 OA
ENDBRANCH  12  14
ENDBRANCH   7  13
ENDBRANCH   6   7
ENDBRANCH   5   6
ENDBRANCH   1   5
BRANCH   3  17
ATOM     17  C   UNL     1       3.420   6.853  18.240  0.00  0.00    +0.000 C 
BRANCH  17  18
ATOM     18  N   UNL     1       2.266   5.987  18.027  0.00  0.00    +0.000 N 
ATOM     19  C   UNL     1       2.044   5.049  19.014  0.00  0.00    +0.000 A 
ATOM     20  N   UNL     1       2.390   5.305  20.283  0.00  0.00    +0.000 NA
ATOM     21  C   UNL     1       2.112   4.376  21.210  0.00  0.00    +0.000 A 
ATOM     22  C   UNL     1       1.528   3.176  20.912  0.00  0.00    +0.000 A 
ATOM     23  C   UNL     1       1.238   3.007  19.583  0.00  0.00    +0.000 A 
ATOM     24 CL   UNL     1       0.519   1.551  19.027  0.00  0.00    +0.000 Cl
ATOM     25  N   UNL     1       1.479   3.908  18.619  0.00  0.00    +0.000 NA
ATOM     26  H   UNL     1       2.247   5.478  17.148  0.00  0.00    +0.000 HD
ENDBRANCH  17  18
BRANCH  17  27
ATOM     27  C   UNL     1       4.836   6.217  17.820  0.00  0.00    +0.000 C 
ATOM     28 CL   UNL     1       4.662   4.897  16.581  0.00  0.00    +0.000 Cl
ATOM     29 CL   UNL     1       5.922   7.461  17.114  0.00  0.00    +0.000 Cl
ATOM     30 CL   UNL     1       5.705   5.440  19.206  0.00  0.00    +0.000 Cl
ENDBRANCH  17  27
ENDBRANCH   3  17
TORSDOF 8
ENDMDL
MODEL 9
REMARK VINA RESULT:      -6.4      4.125      8.015
REMARK  Name = 
REMARK  9 active torsions:
REMARK  status: ('A' for Active; 'I' for Inactive)
REMARK    1  A    between atoms: C_1  and  C_2
REMARK    2  A    between atoms: C_5  and  N_6
REMARK    3  A    between atoms: N_9  and  C_10
REMARK    4  A    between atoms: C_10  and  C_11
REMARK    5  A    between atoms: C_11  and  O_12
REMARK    6  A    between atoms: O_12  and  C_13
REMARK    7  A    between atoms: N_15  and  C_16
REMARK    8  A    between atoms: C_16  and  N_17
REMARK    9  A    between atoms: C_16  and  C_25
REMARK                            x       y       z     vdW  Elec       q    Type
REMARK                         _______ _______ _______ _____ _____    ______ ____
ROOT
ATOM      1  C   UNL     1       1.149   9.016  20.674  0.00  0.00    +0.000 C 
ATOM      2  O   UNL     1       1.575   8.863  21.812  0.00  0.00    +0.000 OA
ATOM      3  N   UNL     1       0.017   9.727  20.443  0.00  0.00    +0.000 N 
ATOM      4  H   UNL     1      -0.411  10.054  21.295  0.00  0.00    +0.000 HD
ENDROOT
BRANCH   1   5
ATOM      5  O   UNL     1       1.590   8.332  19.592  0.00  0.00    +0.000 OA
BRANCH   5   6
ATOM      6  C   UNL     1       2.290   7.125  19.967  0.00  0.00    +0.000 C 
BRANCH   6   7
ATOM      7  C   UNL     1       2.647   6.360  18.687  0.00  0.00    +0.000 C 
BRANCH   7  13
ATOM      8  C   UNL     1       5.526   6.193  17.650  0.00  0.00    +0.000 C 
ATOM      9  C   UNL     1       4.834   5.148  18.455  0.00  0.00    +0.000 A 
ATOM     10  N   UNL     1       5.398   4.027  18.861  0.00  0.00    +0.000 NA
ATOM     11  C   UNL     1       4.443   3.355  19.573  0.00  0.00    +0.000 A 
ATOM     12  C   UNL     1       3.276   4.074  19.598  0.00  0.00    +0.000 A 
ATOM     13  N   UNL     1       3.516   5.222  18.883  0.00  0.00    +0.000 N 
BRANCH  12  14
ATOM     14  N   UNL     1       2.055   3.711  20.231  0.00  0.00    +0.000 N 
ATOM     15  O   UNL     1       1.112   3.421  19.487  0.00  0.00    +0.000 OA
ATOM     16  O   UNL     1       2.015   3.726  21.466  0.00  0.00    +0.000 OA
ENDBRANCH  12  14
ENDBRANCH   7  13
ENDBRANCH   6   7
ENDBRANCH   5   6
ENDBRANCH   1   5
BRANCH   3  17
ATOM     17  C   UNL     1      -0.240  10.507  19.246  0.00  0.00    +0.000 C 
BRANCH  17  18
ATOM     18  N   UNL     1      -1.682  10.708  19.326  0.00  0.00    +0.000 N 
ATOM     19  C   UNL     1      -2.348  10.687  18.117  0.00  0.00    +0.000 A 
ATOM     20  N   UNL     1      -1.890   9.938  17.104  0.00  0.00    +0.000 NA
ATOM     21  C   UNL     1      -2.600   9.920  15.966  0.00  0.00    +0.000 A 
ATOM     22  C   UNL     1      -3.739  10.655  15.785  0.00  0.00    +0.000 A 
ATOM     23  C   UNL     1      -4.103  11.404  16.873  0.00  0.00    +0.000 A 
ATOM     24 CL   UNL     1      -5.498  12.403  16.816  0.00  0.00    +0.000 Cl
ATOM     25  N   UNL     1      -3.441  11.446  18.039  0.00  0.00    +0.000 NA
ATOM     26  H   UNL     1      -1.988  11.554  19.799  0.00  0.00    +0.000 HD
ENDBRANCH  17  18
BRANCH  17  27
ATOM     27  C   UNL     1       0.634  11.854  19.163  0.00  0.00    +0.000 C 
ATOM     28 CL   UNL     1      -0.226  13.182  18.267  0.00  0.00    +0.000 Cl
ATOM     29 CL   UNL     1       1.012  12.484  20.801  0.00  0.00    +0.000 Cl
ATOM     30 CL   UNL     1       2.197  11.634  18.276  0.00  0.00    +0.000 Cl
ENDBRANCH  17  27
ENDBRANCH   3  17
TORSDOF 8
ENDMDL
