MODEL 1
REMARK VINA RESULT:      -7.6      0.000      0.000
REMARK  Name = 
REMARK  5 active torsions:
REMARK  status: ('A' for Active; 'I' for Inactive)
REMARK    1  A    between atoms: C_2  and  C_9
REMARK    2  A    between atoms: N_3  and  C_4
REMARK    3  A    between atoms: C_4  and  C_5
REMARK    4  A    between atoms: C_12  and  O_13
REMARK    5  A    between atoms: C_16  and  C_17
REMARK                            x       y       z     vdW  Elec       q    Type
REMARK                         _______ _______ _______ _____ _____    ______ ____
ROOT
ATOM      1  C   UNL     1       3.918   4.217  18.768  0.00  0.00    +0.000 A 
ATOM      2  C   UNL     1       3.977   2.879  19.217  0.00  0.00    +0.000 A 
ATOM      3  C   UNL     1       3.284   2.461  20.359  0.00  0.00    +0.000 A 
ATOM      4  C   UNL     1       2.508   3.365  21.080  0.00  0.00    +0.000 A 
ATOM      5  C   UNL     1       2.441   4.674  20.615  0.00  0.00    +0.000 A 
ATOM      6  N   UNL     1       1.776   5.777  21.081  0.00  0.00    +0.000 N 
ATOM      7  C   UNL     1       2.049   6.833  20.251  0.00  0.00    +0.000 A 
ATOM      8  N   UNL     1       2.860   6.468  19.276  0.00  0.00    +0.000 NA
ATOM      9  C   UNL     1       3.117   5.124  19.486  0.00  0.00    +0.000 A 
ATOM     10  H   UNL     1       1.183   5.803  21.898  0.00  0.00    +0.000 HD
ENDROOT
BRANCH   7  11
ATOM     11  C   UNL     1       1.519   8.154  20.420  0.00  0.00    +0.000 A 
ATOM     12  C   UNL     1       1.085   8.719  21.603  0.00  0.00    +0.000 A 
ATOM     13  C   UNL     1       0.625  10.057  21.434  0.00  0.00    +0.000 A 
ATOM     14  C   UNL     1       0.715  10.470  20.123  0.00  0.00    +0.000 A 
ATOM     15  S   UNL     1       1.353   9.251  19.110  0.00  0.00    +0.000 S 
ENDBRANCH   7  11
BRANCH   1  17
ATOM     16  O   UNL     1       4.877   3.851  16.661  0.00  0.00    +0.000 OA
ATOM     17  C   UNL     1       4.724   4.631  17.595  0.00  0.00    +0.000 C 
ATOM     18  N   UNL     1       5.295   5.886  17.630  0.00  0.00    +0.000 N 
ATOM     19  H   UNL     1       5.020   6.516  18.388  0.00  0.00    +0.000 HD
BRANCH  18  20
ATOM     20  C   UNL     1       6.149   6.356  16.563  0.00  0.00    +0.000 C 
BRANCH  20  21
ATOM     21  C   UNL     1       7.503   6.691  17.151  0.00  0.00    +0.000 C 
ATOM     22  C   UNL     1       7.727   8.127  17.683  0.00  0.00    +0.000 C 
ATOM     23  N   UNL     1       8.478   7.533  18.813  0.00  0.00    +0.000 NA
ATOM     24  C   UNL     1       7.687   6.292  18.639  0.00  0.00    +0.000 C 
ATOM     25  H   UNL     1       8.343   8.005  19.707  0.00  0.00    +0.000 HD
ENDBRANCH  20  21
ENDBRANCH  18  20
ENDBRANCH   1  17
BRANCH   4  26
ATOM     26  O   UNL     1       1.831   3.005  22.208  0.00  0.00    +0.000 OA
ATOM     27  H   UNL     1       2.210   3.488  22.962  0.00  0.00    +0.000 HD
ENDBRANCH   4  26
TORSDOF 5
ENDMDL
MODEL 2
REMARK VINA RESULT:      -7.6      2.860      6.631
REMARK  Name = 
REMARK  5 active torsions:
REMARK  status: ('A' for Active; 'I' for Inactive)
REMARK    1  A    between atoms: C_2  and  C_9
REMARK    2  A    between atoms: N_3  and  C_4
REMARK    3  A    between atoms: C_4  and  C_5
REMARK    4  A    between atoms: C_12  and  O_13
REMARK    5  A    between atoms: C_16  and  C_17
REMARK                            x       y       z     vdW  Elec       q    Type
REMARK                         _______ _______ _______ _____ _____    ______ ____
ROOT
ATOM      1  C   UNL     1       2.037   5.449  19.713  0.00  0.00    +0.000 A 
ATOM      2  C   UNL     1       1.171   4.618  20.457  0.00  0.00    +0.000 A 
ATOM      3  C   UNL     1       1.114   3.237  20.235  0.00  0.00    +0.000 A 
ATOM      4  C   UNL     1       1.922   2.648  19.267  0.00  0.00    +0.000 A 
ATOM      5  C   UNL     1       2.786   3.473  18.555  0.00  0.00    +0.000 A 
ATOM      6  N   UNL     1       3.695   3.210  17.565  0.00  0.00    +0.000 N 
ATOM      7  C   UNL     1       4.291   4.389  17.197  0.00  0.00    +0.000 A 
ATOM      8  N   UNL     1       3.810   5.398  17.897  0.00  0.00    +0.000 NA
ATOM      9  C   UNL     1       2.868   4.848  18.750  0.00  0.00    +0.000 A 
ATOM     10  H   UNL     1       3.891   2.299  17.176  0.00  0.00    +0.000 HD
ENDROOT
BRANCH   7  11
ATOM     11  C   UNL     1       5.305   4.503  16.190  0.00  0.00    +0.000 A 
ATOM     12  C   UNL     1       5.193   4.129  14.865  0.00  0.00    +0.000 A 
ATOM     13  C   UNL     1       6.381   4.386  14.121  0.00  0.00    +0.000 A 
ATOM     14  C   UNL     1       7.367   4.942  14.905  0.00  0.00    +0.000 A 
ATOM     15  S   UNL     1       6.859   5.153  16.522  0.00  0.00    +0.000 S 
ENDBRANCH   7  11
BRANCH   1  17
ATOM     16  O   UNL     1       2.472   7.662  19.077  0.00  0.00    +0.000 OA
ATOM     17  C   UNL     1       2.014   6.914  19.934  0.00  0.00    +0.000 C 
ATOM     18  N   UNL     1       1.495   7.365  21.130  0.00  0.00    +0.000 N 
ATOM     19  H   UNL     1       1.026   6.687  21.735  0.00  0.00    +0.000 HD
BRANCH  18  20
ATOM     20  C   UNL     1       1.487   8.771  21.465  0.00  0.00    +0.000 C 
BRANCH  20  21
ATOM     21  C   UNL     1       0.095   9.141  21.932  0.00  0.00    +0.000 C 
ATOM     22  C   UNL     1      -0.094   9.508  23.423  0.00  0.00    +0.000 C 
ATOM     23  N   UNL     1      -1.023  10.577  22.987  0.00  0.00    +0.000 NA
ATOM     24  C   UNL     1      -0.304  10.620  21.692  0.00  0.00    +0.000 C 
ATOM     25  H   UNL     1      -0.969  11.435  23.534  0.00  0.00    +0.000 HD
ENDBRANCH  20  21
ENDBRANCH  18  20
ENDBRANCH   1  17
BRANCH   4  26
ATOM     26  O   UNL     1       1.886   1.310  19.004  0.00  0.00    +0.000 OA
ATOM     27  H   UNL     1       2.122   0.829  19.816  0.00  0.00    +0.000 HD
ENDBRANCH   4  26
TORSDOF 5
ENDMDL
MODEL 3
REMARK VINA RESULT:      -7.5      1.591      2.268
REMARK  Name = 
REMARK  5 active torsions:
REMARK  status: ('A' for Active; 'I' for Inactive)
REMARK    1  A    between atoms: C_2  and  C_9
REMARK    2  A    between atoms: N_3  and  C_4
REMARK    3  A    between atoms: C_4  and  C_5
REMARK    4  A    between atoms: C_12  and  O_13
REMARK    5  A    between atoms: C_16  and  C_17
REMARK                            x       y       z     vdW  Elec       q    Type
REMARK                         _______ _______ _______ _____ _____    ______ ____
ROOT
ATOM      1  C   UNL     1       4.459   4.155  19.251  0.00  0.00    +0.000 A 
ATOM      2  C   UNL     1       4.430   2.825  19.722  0.00  0.00    +0.000 A 
ATOM      3  C   UNL     1       3.469   2.398  20.645  0.00  0.00    +0.000 A 
ATOM      4  C   UNL     1       2.506   3.285  21.119  0.00  0.00    +0.000 A 
ATOM      5  C   UNL     1       2.532   4.588  20.631  0.00  0.00    +0.000 A 
ATOM      6  N   UNL     1       1.740   5.675  20.884  0.00  0.00    +0.000 N 
ATOM      7  C   UNL     1       2.197   6.731  20.139  0.00  0.00    +0.000 A 
ATOM      8  N   UNL     1       3.247   6.380  19.422  0.00  0.00    +0.000 NA
ATOM      9  C   UNL     1       3.473   5.046  19.715  0.00  0.00    +0.000 A 
ATOM     10  H   UNL     1       0.950   5.692  21.514  0.00  0.00    +0.000 HD
ENDROOT
BRANCH   7  11
ATOM     11  C   UNL     1       1.608   8.038  20.138  0.00  0.00    +0.000 A 
ATOM     12  C   UNL     1       1.008   8.668  21.211  0.00  0.00    +0.000 A 
ATOM     13  C   UNL     1       0.531   9.970  20.884  0.00  0.00    +0.000 A 
ATOM     14  C   UNL     1       0.775  10.291  19.567  0.00  0.00    +0.000 A 
ATOM     15  S   UNL     1       1.576   9.029  18.738  0.00  0.00    +0.000 S 
ENDBRANCH   7  11
BRANCH   1  17
ATOM     16  O   UNL     1       6.705   4.333  18.606  0.00  0.00    +0.000 OA
ATOM     17  C   UNL     1       5.537   4.581  18.327  0.00  0.00    +0.000 C 
ATOM     18  N   UNL     1       5.163   5.275  17.195  0.00  0.00    +0.000 N 
ATOM     19  H   UNL     1       4.166   5.335  16.978  0.00  0.00    +0.000 HD
BRANCH  18  20
ATOM     20  C   UNL     1       6.145   5.787  16.266  0.00  0.00    +0.000 C 
BRANCH  20  21
ATOM     21  C   UNL     1       5.884   5.168  14.909  0.00  0.00    +0.000 C 
ATOM     22  C   UNL     1       7.102   4.882  13.998  0.00  0.00    +0.000 C 
ATOM     23  N   UNL     1       6.445   3.612  13.610  0.00  0.00    +0.000 NA
ATOM     24  C   UNL     1       5.737   3.624  14.912  0.00  0.00    +0.000 C 
ATOM     25  H   UNL     1       7.083   2.828  13.478  0.00  0.00    +0.000 HD
ENDBRANCH  20  21
ENDBRANCH  18  20
ENDBRANCH   1  17
BRANCH   4  26
ATOM     26  O   UNL     1       1.563   2.917  22.032  0.00  0.00    +0.000 OA
ATOM     27  H   UNL     1       1.253   3.715  22.494  0.00  0.00    +0.000 HD
ENDBRANCH   4  26
TORSDOF 5
ENDMDL
MODEL 4
REMARK VINA RESULT:      -7.5      1.747      2.111
REMARK  Name = 
REMARK  5 active torsions:
REMARK  status: ('A' for Active; 'I' for Inactive)
REMARK    1  A    between atoms: C_2  and  C_9
REMARK    2  A    between atoms: N_3  and  C_4
REMARK    3  A    between atoms: C_4  and  C_5
REMARK    4  A    between atoms: C_12  and  O_13
REMARK    5  A    between atoms: C_16  and  C_17
REMARK                            x       y       z     vdW  Elec       q    Type
REMARK                         _______ _______ _______ _____ _____    ______ ____
ROOT
ATOM      1  C   UNL     1       4.457   4.021  19.585  0.00  0.00    +0.000 A 
ATOM      2  C   UNL     1       4.239   2.677  19.960  0.00  0.00    +0.000 A 
ATOM      3  C   UNL     1       3.047   2.273  20.571  0.00  0.00    +0.000 A 
ATOM      4  C   UNL     1       2.037   3.199  20.820  0.00  0.00    +0.000 A 
ATOM      5  C   UNL     1       2.254   4.516  20.427  0.00  0.00    +0.000 A 
ATOM      6  N   UNL     1       1.477   5.638  20.520  0.00  0.00    +0.000 N 
ATOM      7  C   UNL     1       2.167   6.693  19.980  0.00  0.00    +0.000 A 
ATOM      8  N   UNL     1       3.352   6.306  19.548  0.00  0.00    +0.000 NA
ATOM      9  C   UNL     1       3.427   4.951  19.818  0.00  0.00    +0.000 A 
ATOM     10  H   UNL     1       0.549   5.678  20.918  0.00  0.00    +0.000 HD
ENDROOT
BRANCH   7  11
ATOM     11  C   UNL     1       1.663   8.031  19.893  0.00  0.00    +0.000 A 
ATOM     12  C   UNL     1       1.655   8.834  18.769  0.00  0.00    +0.000 A 
ATOM     13  C   UNL     1       1.071  10.111  19.013  0.00  0.00    +0.000 A 
ATOM     14  C   UNL     1       0.658  10.246  20.320  0.00  0.00    +0.000 A 
ATOM     15  S   UNL     1       0.971   8.840  21.239  0.00  0.00    +0.000 S 
ENDBRANCH   7  11
BRANCH   1  17
ATOM     16  O   UNL     1       6.562   5.046  19.687  0.00  0.00    +0.000 OA
ATOM     17  C   UNL     1       5.762   4.416  19.004  0.00  0.00    +0.000 C 
ATOM     18  N   UNL     1       5.999   4.074  17.688  0.00  0.00    +0.000 N 
ATOM     19  H   UNL     1       5.333   3.449  17.229  0.00  0.00    +0.000 HD
BRANCH  18  20
ATOM     20  C   UNL     1       7.214   4.470  17.014  0.00  0.00    +0.000 C 
BRANCH  20  21
ATOM     21  C   UNL     1       6.873   5.557  16.018  0.00  0.00    +0.000 C 
ATOM     22  C   UNL     1       5.684   5.313  15.058  0.00  0.00    +0.000 C 
ATOM     23  N   UNL     1       5.307   6.733  15.249  0.00  0.00    +0.000 NA
ATOM     24  C   UNL     1       5.973   6.693  16.572  0.00  0.00    +0.000 C 
ATOM     25  H   UNL     1       4.303   6.905  15.280  0.00  0.00    +0.000 HD
ENDBRANCH  20  21
ENDBRANCH  18  20
ENDBRANCH   1  17
BRANCH   4  26
ATOM     26  O   UNL     1       0.867   2.853  21.430  0.00  0.00    +0.000 OA
ATOM     27  H   UNL     1       0.180   2.762  20.749  0.00  0.00    +0.000 HD
ENDBRANCH   4  26
TORSDOF 5
ENDMDL
MODEL 5
REMARK VINA RESULT:      -7.3      1.122      1.401
REMARK  Name = 
REMARK  5 active torsions:
REMARK  status: ('A' for Active; 'I' for Inactive)
REMARK    1  A    between atoms: C_2  and  C_9
REMARK    2  A    between atoms: N_3  and  C_4
REMARK    3  A    between atoms: C_4  and  C_5
REMARK    4  A    between atoms: C_12  and  O_13
REMARK    5  A    between atoms: C_16  and  C_17
REMARK                            x       y       z     vdW  Elec       q    Type
REMARK                         _______ _______ _______ _____ _____    ______ ____
ROOT
ATOM      1  C   UNL     1       4.155   3.672  19.017  0.00  0.00    +0.000 A 
ATOM      2  C   UNL     1       4.112   2.424  19.677  0.00  0.00    +0.000 A 
ATOM      3  C   UNL     1       3.295   2.216  20.793  0.00  0.00    +0.000 A 
ATOM      4  C   UNL     1       2.493   3.245  21.279  0.00  0.00    +0.000 A 
ATOM      5  C   UNL     1       2.527   4.464  20.607  0.00  0.00    +0.000 A 
ATOM      6  N   UNL     1       1.870   5.645  20.822  0.00  0.00    +0.000 N 
ATOM      7  C   UNL     1       2.267   6.545  19.867  0.00  0.00    +0.000 A 
ATOM      8  N   UNL     1       3.151   6.004  19.051  0.00  0.00    +0.000 NA
ATOM      9  C   UNL     1       3.329   4.705  19.496  0.00  0.00    +0.000 A 
ATOM     10  H   UNL     1       1.202   5.819  21.560  0.00  0.00    +0.000 HD
ENDROOT
BRANCH   7  11
ATOM     11  C   UNL     1       1.781   7.889  19.769  0.00  0.00    +0.000 A 
ATOM     12  C   UNL     1       1.820   8.697  18.648  0.00  0.00    +0.000 A 
ATOM     13  C   UNL     1       1.242   9.979  18.877  0.00  0.00    +0.000 A 
ATOM     14  C   UNL     1       0.786  10.113  20.170  0.00  0.00    +0.000 A 
ATOM     15  S   UNL     1       1.052   8.700  21.093  0.00  0.00    +0.000 S 
ENDBRANCH   7  11
BRANCH   1  17
ATOM     16  O   UNL     1       4.721   3.590  16.744  0.00  0.00    +0.000 OA
ATOM     17  C   UNL     1       5.087   3.868  17.881  0.00  0.00    +0.000 C 
ATOM     18  N   UNL     1       6.352   4.334  18.174  0.00  0.00    +0.000 N 
ATOM     19  H   UNL     1       6.535   4.654  19.127  0.00  0.00    +0.000 HD
BRANCH  18  20
ATOM     20  C   UNL     1       7.351   4.498  17.143  0.00  0.00    +0.000 C 
BRANCH  20  21
ATOM     21  C   UNL     1       7.440   5.969  16.795  0.00  0.00    +0.000 C 
ATOM     22  C   UNL     1       6.120   6.771  16.704  0.00  0.00    +0.000 C 
ATOM     23  N   UNL     1       6.820   7.895  17.370  0.00  0.00    +0.000 NA
ATOM     24  C   UNL     1       7.731   6.908  17.995  0.00  0.00    +0.000 C 
ATOM     25  H   UNL     1       6.246   8.424  18.025  0.00  0.00    +0.000 HD
ENDBRANCH  20  21
ENDBRANCH  18  20
ENDBRANCH   1  17
BRANCH   4  26
ATOM     26  O   UNL     1       1.696   3.092  22.374  0.00  0.00    +0.000 OA
ATOM     27  H   UNL     1       1.177   2.277  22.266  0.00  0.00    +0.000 HD
ENDBRANCH   4  26
TORSDOF 5
ENDMDL
MODEL 6
REMARK VINA RESULT:      -7.2      1.193      1.364
REMARK  Name = 
REMARK  5 active torsions:
REMARK  status: ('A' for Active; 'I' for Inactive)
REMARK    1  A    between atoms: C_2  and  C_9
REMARK    2  A    between atoms: N_3  and  C_4
REMARK    3  A    between atoms: C_4  and  C_5
REMARK    4  A    between atoms: C_12  and  O_13
REMARK    5  A    between atoms: C_16  and  C_17
REMARK                            x       y       z     vdW  Elec       q    Type
REMARK                         _______ _______ _______ _____ _____    ______ ____
ROOT
ATOM      1  C   UNL     1       3.297   4.193  18.618  0.00  0.00    +0.000 A 
ATOM      2  C   UNL     1       3.347   2.849  19.049  0.00  0.00    +0.000 A 
ATOM      3  C   UNL     1       2.808   2.456  20.279  0.00  0.00    +0.000 A 
ATOM      4  C   UNL     1       2.201   3.393  21.111  0.00  0.00    +0.000 A 
ATOM      5  C   UNL     1       2.138   4.710  20.667  0.00  0.00    +0.000 A 
ATOM      6  N   UNL     1       1.614   5.841  21.230  0.00  0.00    +0.000 N 
ATOM      7  C   UNL     1       1.820   6.891  20.372  0.00  0.00    +0.000 A 
ATOM      8  N   UNL     1       2.455   6.493  19.287  0.00  0.00    +0.000 NA
ATOM      9  C   UNL     1       2.664   5.134  19.451  0.00  0.00    +0.000 A 
ATOM     10  H   UNL     1       1.151   5.891  22.127  0.00  0.00    +0.000 HD
ENDROOT
BRANCH   7  11
ATOM     11  C   UNL     1       1.396   8.237  20.623  0.00  0.00    +0.000 A 
ATOM     12  C   UNL     1       1.148   8.803  21.859  0.00  0.00    +0.000 A 
ATOM     13  C   UNL     1       0.752  10.169  21.765  0.00  0.00    +0.000 A 
ATOM     14  C   UNL     1       0.703  10.601  20.459  0.00  0.00    +0.000 A 
ATOM     15  S   UNL     1       1.135   9.368  19.359  0.00  0.00    +0.000 S 
ENDBRANCH   7  11
BRANCH   1  17
ATOM     16  O   UNL     1       3.847   3.833  16.369  0.00  0.00    +0.000 OA
ATOM     17  C   UNL     1       3.941   4.576  17.340  0.00  0.00    +0.000 C 
ATOM     18  N   UNL     1       4.653   5.758  17.319  0.00  0.00    +0.000 N 
ATOM     19  H   UNL     1       4.582   6.374  18.132  0.00  0.00    +0.000 HD
BRANCH  18  20
ATOM     20  C   UNL     1       5.369   6.185  16.138  0.00  0.00    +0.000 C 
BRANCH  20  21
ATOM     21  C   UNL     1       6.816   5.766  16.282  0.00  0.00    +0.000 C 
ATOM     22  C   UNL     1       7.287   5.250  17.663  0.00  0.00    +0.000 C 
ATOM     23  N   UNL     1       8.086   4.227  16.948  0.00  0.00    +0.000 NA
ATOM     24  C   UNL     1       7.125   4.316  15.823  0.00  0.00    +0.000 C 
ATOM     25  H   UNL     1       8.121   3.319  17.409  0.00  0.00    +0.000 HD
ENDBRANCH  20  21
ENDBRANCH  18  20
ENDBRANCH   1  17
BRANCH   4  26
ATOM     26  O   UNL     1       1.679   3.058  22.326  0.00  0.00    +0.000 OA
ATOM     27  H   UNL     1       0.726   3.247  22.316  0.00  0.00    +0.000 HD
ENDBRANCH   4  26
TORSDOF 5
ENDMDL
MODEL 7
REMARK VINA RESULT:      -7.1      3.951      7.595
REMARK  Name = 
REMARK  5 active torsions:
REMARK  status: ('A' for Active; 'I' for Inactive)
REMARK    1  A    between atoms: C_2  and  C_9
REMARK    2  A    between atoms: N_3  and  C_4
REMARK    3  A    between atoms: C_4  and  C_5
REMARK    4  A    between atoms: C_12  and  O_13
REMARK    5  A    between atoms: C_16  and  C_17
REMARK                            x       y       z     vdW  Elec       q    Type
REMARK                         _______ _______ _______ _____ _____    ______ ____
ROOT
ATOM      1  C   UNL     1       5.603   4.402  18.351  0.00  0.00    +0.000 A 
ATOM      2  C   UNL     1       6.157   5.358  19.230  0.00  0.00    +0.000 A 
ATOM      3  C   UNL     1       6.978   6.390  18.763  0.00  0.00    +0.000 A 
ATOM      4  C   UNL     1       7.265   6.500  17.405  0.00  0.00    +0.000 A 
ATOM      5  C   UNL     1       6.696   5.565  16.546  0.00  0.00    +0.000 A 
ATOM      6  N   UNL     1       6.772   5.404  15.189  0.00  0.00    +0.000 N 
ATOM      7  C   UNL     1       6.020   4.314  14.836  0.00  0.00    +0.000 A 
ATOM      8  N   UNL     1       5.467   3.761  15.899  0.00  0.00    +0.000 NA
ATOM      9  C   UNL     1       5.877   4.526  16.977  0.00  0.00    +0.000 A 
ATOM     10  H   UNL     1       7.295   5.994  14.556  0.00  0.00    +0.000 HD
ENDROOT
BRANCH   7  11
ATOM     11  C   UNL     1       5.856   3.844  13.492  0.00  0.00    +0.000 A 
ATOM     12  C   UNL     1       4.680   3.405  12.914  0.00  0.00    +0.000 A 
ATOM     13  C   UNL     1       4.851   3.015  11.554  0.00  0.00    +0.000 A 
ATOM     14  C   UNL     1       6.156   3.162  11.138  0.00  0.00    +0.000 A 
ATOM     15  S   UNL     1       7.160   3.768  12.380  0.00  0.00    +0.000 S 
ENDBRANCH   7  11
BRANCH   1  17
ATOM     16  O   UNL     1       5.160   2.723  19.925  0.00  0.00    +0.000 OA
ATOM     17  C   UNL     1       4.796   3.285  18.898  0.00  0.00    +0.000 C 
ATOM     18  N   UNL     1       3.671   2.912  18.192  0.00  0.00    +0.000 N 
ATOM     19  H   UNL     1       3.374   3.508  17.416  0.00  0.00    +0.000 HD
BRANCH  18  20
ATOM     20  C   UNL     1       2.855   1.795  18.610  0.00  0.00    +0.000 C 
BRANCH  20  21
ATOM     21  C   UNL     1       1.548   2.337  19.150  0.00  0.00    +0.000 C 
ATOM     22  C   UNL     1       1.474   2.679  20.658  0.00  0.00    +0.000 C 
ATOM     23  N   UNL     1       0.685   3.878  20.292  0.00  0.00    +0.000 NA
ATOM     24  C   UNL     1       1.348   3.864  18.967  0.00  0.00    +0.000 C 
ATOM     25  H   UNL     1       0.879   4.703  20.859  0.00  0.00    +0.000 HD
ENDBRANCH  20  21
ENDBRANCH  18  20
ENDBRANCH   1  17
BRANCH   4  26
ATOM     26  O   UNL     1       8.075   7.478  16.908  0.00  0.00    +0.000 OA
ATOM     27  H   UNL     1       8.930   7.080  16.672  0.00  0.00    +0.000 HD
ENDBRANCH   4  26
TORSDOF 5
ENDMDL
MODEL 8
REMARK VINA RESULT:      -7.0      2.391      5.116
REMARK  Name = 
REMARK  5 active torsions:
REMARK  status: ('A' for Active; 'I' for Inactive)
REMARK    1  A    between atoms: C_2  and  C_9
REMARK    2  A    between atoms: N_3  and  C_4
REMARK    3  A    between atoms: C_4  and  C_5
REMARK    4  A    between atoms: C_12  and  O_13
REMARK    5  A    between atoms: C_16  and  C_17
REMARK                            x       y       z     vdW  Elec       q    Type
REMARK                         _______ _______ _______ _____ _____    ______ ____
ROOT
ATOM      1  C   UNL     1       4.006   3.866  17.371  0.00  0.00    +0.000 A 
ATOM      2  C   UNL     1       5.058   3.459  16.522  0.00  0.00    +0.000 A 
ATOM      3  C   UNL     1       5.804   4.388  15.787  0.00  0.00    +0.000 A 
ATOM      4  C   UNL     1       5.525   5.748  15.885  0.00  0.00    +0.000 A 
ATOM      5  C   UNL     1       4.500   6.138  16.742  0.00  0.00    +0.000 A 
ATOM      6  N   UNL     1       3.994   7.369  17.061  0.00  0.00    +0.000 N 
ATOM      7  C   UNL     1       2.976   7.201  17.964  0.00  0.00    +0.000 A 
ATOM      8  N   UNL     1       2.797   5.923  18.238  0.00  0.00    +0.000 NA
ATOM      9  C   UNL     1       3.739   5.242  17.485  0.00  0.00    +0.000 A 
ATOM     10  H   UNL     1       4.321   8.252  16.693  0.00  0.00    +0.000 HD
ENDROOT
BRANCH   7  11
ATOM     11  C   UNL     1       2.213   8.272  18.534  0.00  0.00    +0.000 A 
ATOM     12  C   UNL     1       1.839   9.442  17.900  0.00  0.00    +0.000 A 
ATOM     13  C   UNL     1       1.074  10.300  18.741  0.00  0.00    +0.000 A 
ATOM     14  C   UNL     1       0.893   9.761  19.996  0.00  0.00    +0.000 A 
ATOM     15  S   UNL     1       1.640   8.233  20.150  0.00  0.00    +0.000 S 
ENDBRANCH   7  11
BRANCH   1  17
ATOM     16  O   UNL     1       3.621   1.695  18.167  0.00  0.00    +0.000 OA
ATOM     17  C   UNL     1       3.198   2.843  18.076  0.00  0.00    +0.000 C 
ATOM     18  N   UNL     1       1.974   3.237  18.577  0.00  0.00    +0.000 N 
ATOM     19  H   UNL     1       1.751   4.235  18.564  0.00  0.00    +0.000 HD
BRANCH  18  20
ATOM     20  C   UNL     1       1.087   2.298  19.224  0.00  0.00    +0.000 C 
BRANCH  20  21
ATOM     21  C   UNL     1       1.103   2.576  20.712  0.00  0.00    +0.000 C 
ATOM     22  C   UNL     1       2.315   2.068  21.529  0.00  0.00    +0.000 C 
ATOM     23  N   UNL     1       2.267   3.339  22.290  0.00  0.00    +0.000 NA
ATOM     24  C   UNL     1       1.638   3.977  21.110  0.00  0.00    +0.000 C 
ATOM     25  H   UNL     1       3.179   3.715  22.544  0.00  0.00    +0.000 HD
ENDBRANCH  20  21
ENDBRANCH  18  20
ENDBRANCH   1  17
BRANCH   4  26
ATOM     26  O   UNL     1       6.214   6.686  15.174  0.00  0.00    +0.000 OA
ATOM     27  H   UNL     1       7.055   6.861  15.629  0.00  0.00    +0.000 HD
ENDBRANCH   4  26
TORSDOF 5
ENDMDL
MODEL 9
REMARK VINA RESULT:      -7.0      1.562      2.259
REMARK  Name = 
REMARK  5 active torsions:
REMARK  status: ('A' for Active; 'I' for Inactive)
REMARK    1  A    between atoms: C_2  and  C_9
REMARK    2  A    between atoms: N_3  and  C_4
REMARK    3  A    between atoms: C_4  and  C_5
REMARK    4  A    between atoms: C_12  and  O_13
REMARK    5  A    between atoms: C_16  and  C_17
REMARK                            x       y       z     vdW  Elec       q    Type
REMARK                         _______ _______ _______ _____ _____    ______ ____
ROOT
ATOM      1  C   UNL     1       3.919   4.926  18.815  0.00  0.00    +0.000 A 
ATOM      2  C   UNL     1       4.065   3.555  19.121  0.00  0.00    +0.000 A 
ATOM      3  C   UNL     1       3.368   2.966  20.181  0.00  0.00    +0.000 A 
ATOM      4  C   UNL     1       2.503   3.727  20.963  0.00  0.00    +0.000 A 
ATOM      5  C   UNL     1       2.352   5.072  20.639  0.00  0.00    +0.000 A 
ATOM      6  N   UNL     1       1.592   6.066  21.192  0.00  0.00    +0.000 N 
ATOM      7  C   UNL     1       1.812   7.224  20.492  0.00  0.00    +0.000 A 
ATOM      8  N   UNL     1       2.679   7.026  19.517  0.00  0.00    +0.000 NA
ATOM      9  C   UNL     1       3.030   5.689  19.592  0.00  0.00    +0.000 A 
ATOM     10  H   UNL     1       0.972   5.960  21.983  0.00  0.00    +0.000 HD
ENDROOT
BRANCH   7  11
ATOM     11  C   UNL     1       1.178   8.477  20.779  0.00  0.00    +0.000 A 
ATOM     12  C   UNL     1       0.719   8.901  22.011  0.00  0.00    +0.000 A 
ATOM     13  C   UNL     1       0.148  10.206  21.962  0.00  0.00    +0.000 A 
ATOM     14  C   UNL     1       0.182  10.735  20.691  0.00  0.00    +0.000 A 
ATOM     15  S   UNL     1       0.901   9.664  19.571  0.00  0.00    +0.000 S 
ENDBRANCH   7  11
BRANCH   1  17
ATOM     16  O   UNL     1       4.192   6.258  16.906  0.00  0.00    +0.000 OA
ATOM     17  C   UNL     1       4.730   5.522  17.726  0.00  0.00    +0.000 C 
ATOM     18  N   UNL     1       6.067   5.187  17.676  0.00  0.00    +0.000 N 
ATOM     19  H   UNL     1       6.460   4.666  18.463  0.00  0.00    +0.000 HD
BRANCH  18  20
ATOM     20  C   UNL     1       6.925   5.667  16.616  0.00  0.00    +0.000 C 
BRANCH  20  21
ATOM     21  C   UNL     1       7.143   4.537  15.633  0.00  0.00    +0.000 C 
ATOM     22  C   UNL     1       5.956   3.585  15.350  0.00  0.00    +0.000 C 
ATOM     23  N   UNL     1       6.361   3.591  13.924  0.00  0.00    +0.000 NA
ATOM     24  C   UNL     1       6.967   4.926  14.141  0.00  0.00    +0.000 C 
ATOM     25  H   UNL     1       5.585   3.576  13.263  0.00  0.00    +0.000 HD
ENDBRANCH  20  21
ENDBRANCH  18  20
ENDBRANCH   1  17
BRANCH   4  26
ATOM     26  O   UNL     1       1.819   3.199  22.018  0.00  0.00    +0.000 OA
ATOM     27  H   UNL     1       1.922   2.232  21.999  0.00  0.00    +0.000 HD
ENDBRANCH   4  26
TORSDOF 5
ENDMDL
