MODEL 1
REMARK VINA RESULT:      -7.7      0.000      0.000
REMARK  Name = 
REMARK  8 active torsions:
REMARK  status: ('A' for Active; 'I' for Inactive)
REMARK    1  A    between atoms: C_1  and  O_2
REMARK    2  A    between atoms: O_2  and  C_3
REMARK    3  A    between atoms: C_5  and  C_6
REMARK    4  A    between atoms: C_6  and  C_7
REMARK    5  A    between atoms: C_19  and  O_20
REMARK    6  A    between atoms: O_20  and  C_21
REMARK    7  A    between atoms: C_22  and  O_23
REMARK    8  A    between atoms: O_23  and  C_24
REMARK                            x       y       z     vdW  Elec       q    Type
REMARK                         _______ _______ _______ _____ _____    ______ ____
ROOT
ATOM      1  C   UNL     1       6.838   5.580  15.973  0.00  0.00    +0.000 A 
ATOM      2  C   UNL     1       5.688   5.077  16.649  0.00  0.00    +0.000 A 
ATOM      3  C   UNL     1       4.868   4.059  16.116  0.00  0.00    +0.000 A 
ATOM      4  C   UNL     1       5.255   3.579  14.856  0.00  0.00    +0.000 A 
ATOM      5  C   UNL     1       6.386   4.060  14.162  0.00  0.00    +0.000 A 
ATOM      6  C   UNL     1       7.191   5.086  14.704  0.00  0.00    +0.000 A 
ENDROOT
BRANCH   1   8
ATOM      7  C   UNL     1       7.589   6.769  17.913  0.00  0.00    +0.000 C 
ATOM      8  O   UNL     1       7.609   6.592  16.499  0.00  0.00    +0.000 OA
ENDBRANCH   1   8
BRANCH   5   9
ATOM      9  O   UNL     1       6.538   3.455  12.933  0.00  0.00    +0.000 OA
ATOM     10  C   UNL     1       5.376   3.295  12.127  0.00  0.00    +0.000 C 
ENDBRANCH   5   9
BRANCH   6  11
ATOM     11  O   UNL     1       8.218   5.488  13.898  0.00  0.00    +0.000 OA
ATOM     12  C   UNL     1       8.094   5.848  12.535  0.00  0.00    +0.000 C 
ENDBRANCH   6  11
BRANCH   3  13
ATOM     13  C   UNL     1       3.606   3.413  16.757  0.00  0.00    +0.000 C 
BRANCH  13  14
ATOM     14  C   UNL     1       3.560   3.138  18.263  0.00  0.00    +0.000 C 
ATOM     15  O   UNL     1       4.089   2.122  18.730  0.00  0.00    +0.000 OA
ATOM     16  N   UNL     1       2.844   3.956  19.137  0.00  0.00    +0.000 N 
ATOM     17  C   UNL     1       2.648   3.453  20.514  0.00  0.00    +0.000 C 
ATOM     18  C   UNL     1       1.497   4.254  21.099  0.00  0.00    +0.000 C 
ATOM     19  C   UNL     1       1.765   5.548  20.401  0.00  0.00    +0.000 A 
ATOM     20  C   UNL     1       1.436   6.808  20.884  0.00  0.00    +0.000 A 
ATOM     21  C   UNL     1       1.793   7.900  20.113  0.00  0.00    +0.000 A 
ATOM     22  C   UNL     1       2.400   7.698  18.859  0.00  0.00    +0.000 A 
ATOM     23  C   UNL     1       2.721   6.404  18.375  0.00  0.00    +0.000 A 
ATOM     24  C   UNL     1       2.444   5.321  19.180  0.00  0.00    +0.000 A 
ENDBRANCH  13  14
ENDBRANCH   3  13
TORSDOF 5
ENDMDL
MODEL 2
REMARK VINA RESULT:      -7.7      2.992      4.951
REMARK  Name = 
REMARK  8 active torsions:
REMARK  status: ('A' for Active; 'I' for Inactive)
REMARK    1  A    between atoms: C_1  and  O_2
REMARK    2  A    between atoms: O_2  and  C_3
REMARK    3  A    between atoms: C_5  and  C_6
REMARK    4  A    between atoms: C_6  and  C_7
REMARK    5  A    between atoms: C_19  and  O_20
REMARK    6  A    between atoms: O_20  and  C_21
REMARK    7  A    between atoms: C_22  and  O_23
REMARK    8  A    between atoms: O_23  and  C_24
REMARK                            x       y       z     vdW  Elec       q    Type
REMARK                         _______ _______ _______ _____ _____    ______ ____
ROOT
ATOM      1  C   UNL     1       5.420   6.140  16.961  0.00  0.00    +0.000 A 
ATOM      2  C   UNL     1       4.569   6.994  17.722  0.00  0.00    +0.000 A 
ATOM      3  C   UNL     1       3.309   6.586  18.211  0.00  0.00    +0.000 A 
ATOM      4  C   UNL     1       2.938   5.273  17.883  0.00  0.00    +0.000 A 
ATOM      5  C   UNL     1       3.758   4.406  17.128  0.00  0.00    +0.000 A 
ATOM      6  C   UNL     1       5.012   4.833  16.638  0.00  0.00    +0.000 A 
ENDROOT
BRANCH   1   8
ATOM      7  C   UNL     1       7.501   7.256  17.369  0.00  0.00    +0.000 C 
ATOM      8  O   UNL     1       6.634   6.567  16.472  0.00  0.00    +0.000 OA
ENDBRANCH   1   8
BRANCH   5   9
ATOM      9  O   UNL     1       3.161   3.183  16.912  0.00  0.00    +0.000 OA
ATOM     10  C   UNL     1       2.955   2.340  18.039  0.00  0.00    +0.000 C 
ENDBRANCH   5   9
BRANCH   6  11
ATOM     11  O   UNL     1       5.671   3.907  15.880  0.00  0.00    +0.000 OA
ATOM     12  C   UNL     1       5.961   4.039  14.501  0.00  0.00    +0.000 C 
ENDBRANCH   6  11
BRANCH   3  13
ATOM     13  C   UNL     1       2.301   7.408  19.064  0.00  0.00    +0.000 C 
BRANCH  13  14
ATOM     14  C   UNL     1       1.756   8.741  18.542  0.00  0.00    +0.000 C 
ATOM     15  O   UNL     1       1.796   9.002  17.333  0.00  0.00    +0.000 OA
ATOM     16  N   UNL     1       1.299   9.735  19.406  0.00  0.00    +0.000 N 
ATOM     17  C   UNL     1       1.049  11.069  18.817  0.00  0.00    +0.000 C 
ATOM     18  C   UNL     1       1.020  12.048  19.979  0.00  0.00    +0.000 C 
ATOM     19  C   UNL     1       0.421  11.140  21.004  0.00  0.00    +0.000 A 
ATOM     20  C   UNL     1      -0.355  11.544  22.083  0.00  0.00    +0.000 A 
ATOM     21  C   UNL     1      -0.855  10.556  22.913  0.00  0.00    +0.000 A 
ATOM     22  C   UNL     1      -0.508   9.211  22.683  0.00  0.00    +0.000 A 
ATOM     23  C   UNL     1       0.294   8.817  21.581  0.00  0.00    +0.000 A 
ATOM     24  C   UNL     1       0.721   9.790  20.705  0.00  0.00    +0.000 A 
ENDBRANCH  13  14
ENDBRANCH   3  13
TORSDOF 5
ENDMDL
MODEL 3
REMARK VINA RESULT:      -7.6      2.896      5.216
REMARK  Name = 
REMARK  8 active torsions:
REMARK  status: ('A' for Active; 'I' for Inactive)
REMARK    1  A    between atoms: C_1  and  O_2
REMARK    2  A    between atoms: O_2  and  C_3
REMARK    3  A    between atoms: C_5  and  C_6
REMARK    4  A    between atoms: C_6  and  C_7
REMARK    5  A    between atoms: C_19  and  O_20
REMARK    6  A    between atoms: O_20  and  C_21
REMARK    7  A    between atoms: C_22  and  O_23
REMARK    8  A    between atoms: O_23  and  C_24
REMARK                            x       y       z     vdW  Elec       q    Type
REMARK                         _______ _______ _______ _____ _____    ______ ____
ROOT
ATOM      1  C   UNL     1       4.031   4.094  17.411  0.00  0.00    +0.000 A 
ATOM      2  C   UNL     1       3.136   4.862  18.211  0.00  0.00    +0.000 A 
ATOM      3  C   UNL     1       3.283   6.252  18.411  0.00  0.00    +0.000 A 
ATOM      4  C   UNL     1       4.392   6.832  17.776  0.00  0.00    +0.000 A 
ATOM      5  C   UNL     1       5.297   6.097  16.980  0.00  0.00    +0.000 A 
ATOM      6  C   UNL     1       5.141   4.705  16.797  0.00  0.00    +0.000 A 
ENDROOT
BRANCH   1   8
ATOM      7  C   UNL     1       2.910   2.078  18.057  0.00  0.00    +0.000 C 
ATOM      8  O   UNL     1       3.884   2.735  17.250  0.00  0.00    +0.000 OA
ENDBRANCH   1   8
BRANCH   5   9
ATOM      9  O   UNL     1       6.317   6.884  16.492  0.00  0.00    +0.000 OA
ATOM     10  C   UNL     1       7.335   7.285  17.401  0.00  0.00    +0.000 C 
ENDBRANCH   5   9
BRANCH   6  11
ATOM     11  O   UNL     1       6.121   4.117  16.049  0.00  0.00    +0.000 OA
ATOM     12  C   UNL     1       6.112   4.001  14.639  0.00  0.00    +0.000 C 
ENDBRANCH   6  11
BRANCH   3  13
ATOM     13  C   UNL     1       2.371   7.202  19.239  0.00  0.00    +0.000 C 
BRANCH  13  14
ATOM     14  C   UNL     1       1.854   8.505  18.622  0.00  0.00    +0.000 C 
ATOM     15  O   UNL     1       1.921   8.689  17.401  0.00  0.00    +0.000 OA
ATOM     16  N   UNL     1       1.390   9.557  19.412  0.00  0.00    +0.000 N 
ATOM     17  C   UNL     1       1.169  10.854  18.735  0.00  0.00    +0.000 C 
ATOM     18  C   UNL     1       1.127  11.904  19.832  0.00  0.00    +0.000 C 
ATOM     19  C   UNL     1       0.496  11.069  20.899  0.00  0.00    +0.000 A 
ATOM     20  C   UNL     1      -0.298  11.548  21.933  0.00  0.00    +0.000 A 
ATOM     21  C   UNL     1      -0.827  10.620  22.813  0.00  0.00    +0.000 A 
ATOM     22  C   UNL     1      -0.492   9.260  22.675  0.00  0.00    +0.000 A 
ATOM     23  C   UNL     1       0.329   8.788  21.618  0.00  0.00    +0.000 A 
ATOM     24  C   UNL     1       0.785   9.700  20.692  0.00  0.00    +0.000 A 
ENDBRANCH  13  14
ENDBRANCH   3  13
TORSDOF 5
ENDMDL
MODEL 4
REMARK VINA RESULT:      -7.5      3.429      6.580
REMARK  Name = 
REMARK  8 active torsions:
REMARK  status: ('A' for Active; 'I' for Inactive)
REMARK    1  A    between atoms: C_1  and  O_2
REMARK    2  A    between atoms: O_2  and  C_3
REMARK    3  A    between atoms: C_5  and  C_6
REMARK    4  A    between atoms: C_6  and  C_7
REMARK    5  A    between atoms: C_19  and  O_20
REMARK    6  A    between atoms: O_20  and  C_21
REMARK    7  A    between atoms: C_22  and  O_23
REMARK    8  A    between atoms: O_23  and  C_24
REMARK                            x       y       z     vdW  Elec       q    Type
REMARK                         _______ _______ _______ _____ _____    ______ ____
ROOT
ATOM      1  C   UNL     1       3.315   4.667  17.846  0.00  0.00    +0.000 A 
ATOM      2  C   UNL     1       3.186   6.017  18.285  0.00  0.00    +0.000 A 
ATOM      3  C   UNL     1       2.376   6.396  19.378  0.00  0.00    +0.000 A 
ATOM      4  C   UNL     1       1.685   5.345  20.001  0.00  0.00    +0.000 A 
ATOM      5  C   UNL     1       1.790   4.000  19.586  0.00  0.00    +0.000 A 
ATOM      6  C   UNL     1       2.598   3.639  18.485  0.00  0.00    +0.000 A 
ENDROOT
BRANCH   1   8
ATOM      7  C   UNL     1       5.504   4.320  16.937  0.00  0.00    +0.000 C 
ATOM      8  O   UNL     1       4.091   4.324  16.762  0.00  0.00    +0.000 OA
ENDBRANCH   1   8
BRANCH   5   9
ATOM      9  O   UNL     1       0.993   3.162  20.334  0.00  0.00    +0.000 OA
ATOM     10  C   UNL     1       1.530   2.647  21.547  0.00  0.00    +0.000 C 
ENDBRANCH   5   9
BRANCH   6  11
ATOM     11  O   UNL     1       2.561   2.312  18.164  0.00  0.00    +0.000 OA
ATOM     12  C   UNL     1       3.599   1.382  18.413  0.00  0.00    +0.000 C 
ENDBRANCH   6  11
BRANCH   3  13
ATOM     13  C   UNL     1       2.166   7.821  19.966  0.00  0.00    +0.000 C 
BRANCH  13  14
ATOM     14  C   UNL     1       1.435   8.892  19.151  0.00  0.00    +0.000 C 
ATOM     15  O   UNL     1       1.415   8.833  17.915  0.00  0.00    +0.000 OA
ATOM     16  N   UNL     1       0.861  10.009  19.756  0.00  0.00    +0.000 N 
ATOM     17  C   UNL     1       0.420  11.102  18.861  0.00  0.00    +0.000 C 
ATOM     18  C   UNL     1       0.278  12.336  19.734  0.00  0.00    +0.000 C 
ATOM     19  C   UNL     1      -0.172  11.657  20.987  0.00  0.00    +0.000 A 
ATOM     20  C   UNL     1      -0.976  12.225  21.968  0.00  0.00    +0.000 A 
ATOM     21  C   UNL     1      -1.320  11.431  23.048  0.00  0.00    +0.000 A 
ATOM     22  C   UNL     1      -0.796  10.128  23.149  0.00  0.00    +0.000 A 
ATOM     23  C   UNL     1       0.032   9.567  22.144  0.00  0.00    +0.000 A 
ATOM     24  C   UNL     1       0.305  10.325  21.027  0.00  0.00    +0.000 A 
ENDBRANCH  13  14
ENDBRANCH   3  13
TORSDOF 5
ENDMDL
MODEL 5
REMARK VINA RESULT:      -7.3      0.697      2.798
REMARK  Name = 
REMARK  8 active torsions:
REMARK  status: ('A' for Active; 'I' for Inactive)
REMARK    1  A    between atoms: C_1  and  O_2
REMARK    2  A    between atoms: O_2  and  C_3
REMARK    3  A    between atoms: C_5  and  C_6
REMARK    4  A    between atoms: C_6  and  C_7
REMARK    5  A    between atoms: C_19  and  O_20
REMARK    6  A    between atoms: O_20  and  C_21
REMARK    7  A    between atoms: C_22  and  O_23
REMARK    8  A    between atoms: O_23  and  C_24
REMARK                            x       y       z     vdW  Elec       q    Type
REMARK                         _______ _______ _______ _____ _____    ______ ____
ROOT
ATOM      1  C   UNL     1       6.273   4.142  14.037  0.00  0.00    +0.000 A 
ATOM      2  C   UNL     1       5.190   3.611  14.795  0.00  0.00    +0.000 A 
ATOM      3  C   UNL     1       4.891   4.032  16.109  0.00  0.00    +0.000 A 
ATOM      4  C   UNL     1       5.752   5.010  16.632  0.00  0.00    +0.000 A 
ATOM      5  C   UNL     1       6.834   5.552  15.907  0.00  0.00    +0.000 A 
ATOM      6  C   UNL     1       7.125   5.113  14.596  0.00  0.00    +0.000 A 
ENDROOT
BRANCH   1   8
ATOM      7  C   UNL     1       5.478   3.229  11.970  0.00  0.00    +0.000 C 
ATOM      8  O   UNL     1       6.562   3.698  12.766  0.00  0.00    +0.000 OA
ENDBRANCH   1   8
BRANCH   5   9
ATOM      9  O   UNL     1       7.547   6.470  16.646  0.00  0.00    +0.000 OA
ATOM     10  C   UNL     1       7.224   6.601  18.026  0.00  0.00    +0.000 C 
ENDBRANCH   5   9
BRANCH   6  11
ATOM     11  O   UNL     1       8.232   5.685  14.038  0.00  0.00    +0.000 OA
ATOM     12  C   UNL     1       8.462   5.836  12.650  0.00  0.00    +0.000 C 
ENDBRANCH   6  11
BRANCH   3  13
ATOM     13  C   UNL     1       3.734   3.549  17.030  0.00  0.00    +0.000 C 
BRANCH  13  14
ATOM     14  C   UNL     1       3.805   3.777  18.543  0.00  0.00    +0.000 C 
ATOM     15  O   UNL     1       4.421   2.984  19.266  0.00  0.00    +0.000 OA
ATOM     16  N   UNL     1       3.106   4.811  19.163  0.00  0.00    +0.000 N 
ATOM     17  C   UNL     1       3.031   4.776  20.640  0.00  0.00    +0.000 C 
ATOM     18  C   UNL     1       1.879   5.687  21.030  0.00  0.00    +0.000 C 
ATOM     19  C   UNL     1       2.026   6.692  19.934  0.00  0.00    +0.000 A 
ATOM     20  C   UNL     1       1.660   8.030  20.013  0.00  0.00    +0.000 A 
ATOM     21  C   UNL     1       1.902   8.823  18.905  0.00  0.00    +0.000 A 
ATOM     22  C   UNL     1       2.433   8.245  17.737  0.00  0.00    +0.000 A 
ATOM     23  C   UNL     1       2.793   6.874  17.669  0.00  0.00    +0.000 A 
ATOM     24  C   UNL     1       2.633   6.103  18.799  0.00  0.00    +0.000 A 
ENDBRANCH  13  14
ENDBRANCH   3  13
TORSDOF 5
ENDMDL
MODEL 6
REMARK VINA RESULT:      -7.3      3.269      5.965
REMARK  Name = 
REMARK  8 active torsions:
REMARK  status: ('A' for Active; 'I' for Inactive)
REMARK    1  A    between atoms: C_1  and  O_2
REMARK    2  A    between atoms: O_2  and  C_3
REMARK    3  A    between atoms: C_5  and  C_6
REMARK    4  A    between atoms: C_6  and  C_7
REMARK    5  A    between atoms: C_19  and  O_20
REMARK    6  A    between atoms: O_20  and  C_21
REMARK    7  A    between atoms: C_22  and  O_23
REMARK    8  A    between atoms: O_23  and  C_24
REMARK                            x       y       z     vdW  Elec       q    Type
REMARK                         _______ _______ _______ _____ _____    ______ ____
ROOT
ATOM      1  C   UNL     1       4.588   4.469  18.897  0.00  0.00    +0.000 A 
ATOM      2  C   UNL     1       4.145   5.685  19.492  0.00  0.00    +0.000 A 
ATOM      3  C   UNL     1       2.783   6.047  19.580  0.00  0.00    +0.000 A 
ATOM      4  C   UNL     1       1.884   5.125  19.023  0.00  0.00    +0.000 A 
ATOM      5  C   UNL     1       2.293   3.914  18.424  0.00  0.00    +0.000 A 
ATOM      6  C   UNL     1       3.660   3.572  18.335  0.00  0.00    +0.000 A 
ENDROOT
BRANCH   1   8
ATOM      7  C   UNL     1       6.658   4.714  17.716  0.00  0.00    +0.000 C 
ATOM      8  O   UNL     1       5.923   4.148  18.798  0.00  0.00    +0.000 OA
ENDBRANCH   1   8
BRANCH   5   9
ATOM      9  O   UNL     1       1.229   3.196  17.924  0.00  0.00    +0.000 OA
ATOM     10  C   UNL     1       0.543   2.324  18.815  0.00  0.00    +0.000 C 
ENDBRANCH   5   9
BRANCH   6  11
ATOM     11  O   UNL     1       3.911   2.398  17.683  0.00  0.00    +0.000 OA
ATOM     12  C   UNL     1       3.958   1.120  18.290  0.00  0.00    +0.000 C 
ENDBRANCH   6  11
BRANCH   3  13
ATOM     13  C   UNL     1       2.171   7.327  20.219  0.00  0.00    +0.000 C 
BRANCH  13  14
ATOM     14  C   UNL     1       1.668   8.468  19.329  0.00  0.00    +0.000 C 
ATOM     15  O   UNL     1       1.765   8.390  18.098  0.00  0.00    +0.000 OA
ATOM     16  N   UNL     1       1.185   9.660  19.867  0.00  0.00    +0.000 N 
ATOM     17  C   UNL     1       0.980  10.783  18.927  0.00  0.00    +0.000 C 
ATOM     18  C   UNL     1       0.911  12.041  19.776  0.00  0.00    +0.000 C 
ATOM     19  C   UNL     1       0.254  11.446  20.980  0.00  0.00    +0.000 A 
ATOM     20  C   UNL     1      -0.564  12.129  21.871  0.00  0.00    +0.000 A 
ATOM     21  C   UNL     1      -1.114  11.405  22.915  0.00  0.00    +0.000 A 
ATOM     22  C   UNL     1      -0.774  10.048  23.075  0.00  0.00    +0.000 A 
ATOM     23  C   UNL     1       0.072   9.368  22.161  0.00  0.00    +0.000 A 
ATOM     24  C   UNL     1       0.550  10.066  21.074  0.00  0.00    +0.000 A 
ENDBRANCH  13  14
ENDBRANCH   3  13
TORSDOF 5
ENDMDL
MODEL 7
REMARK VINA RESULT:      -7.2      3.579      6.184
REMARK  Name = 
REMARK  8 active torsions:
REMARK  status: ('A' for Active; 'I' for Inactive)
REMARK    1  A    between atoms: C_1  and  O_2
REMARK    2  A    between atoms: O_2  and  C_3
REMARK    3  A    between atoms: C_5  and  C_6
REMARK    4  A    between atoms: C_6  and  C_7
REMARK    5  A    between atoms: C_19  and  O_20
REMARK    6  A    between atoms: O_20  and  C_21
REMARK    7  A    between atoms: C_22  and  O_23
REMARK    8  A    between atoms: O_23  and  C_24
REMARK                            x       y       z     vdW  Elec       q    Type
REMARK                         _______ _______ _______ _____ _____    ______ ____
ROOT
ATOM      1  C   UNL     1       2.154   4.009  18.188  0.00  0.00    +0.000 A 
ATOM      2  C   UNL     1       1.830   5.309  18.673  0.00  0.00    +0.000 A 
ATOM      3  C   UNL     1       2.804   6.229  19.118  0.00  0.00    +0.000 A 
ATOM      4  C   UNL     1       4.129   5.767  19.065  0.00  0.00    +0.000 A 
ATOM      5  C   UNL     1       4.479   4.484  18.593  0.00  0.00    +0.000 A 
ATOM      6  C   UNL     1       3.492   3.573  18.160  0.00  0.00    +0.000 A 
ENDROOT
BRANCH   1   8
ATOM      7  C   UNL     1       0.538   2.346  18.791  0.00  0.00    +0.000 C 
ATOM      8  O   UNL     1       1.185   3.118  17.784  0.00  0.00    +0.000 OA
ENDBRANCH   1   8
BRANCH   5   9
ATOM      9  O   UNL     1       5.836   4.256  18.669  0.00  0.00    +0.000 OA
ATOM     10  C   UNL     1       6.655   5.305  19.171  0.00  0.00    +0.000 C 
ENDBRANCH   5   9
BRANCH   6  11
ATOM     11  O   UNL     1       3.973   2.351  17.782  0.00  0.00    +0.000 OA
ATOM     12  C   UNL     1       3.937   1.179  18.574  0.00  0.00    +0.000 C 
ENDBRANCH   6  11
BRANCH   3  13
ATOM     13  C   UNL     1       2.585   7.675  19.648  0.00  0.00    +0.000 C 
BRANCH  13  14
ATOM     14  C   UNL     1       1.639   8.631  18.914  0.00  0.00    +0.000 C 
ATOM     15  O   UNL     1       1.518   8.568  17.684  0.00  0.00    +0.000 OA
ATOM     16  N   UNL     1       0.971   9.657  19.580  0.00  0.00    +0.000 N 
ATOM     17  C   UNL     1       0.302  10.675  18.740  0.00  0.00    +0.000 C 
ATOM     18  C   UNL     1       0.067  11.878  19.637  0.00  0.00    +0.000 C 
ATOM     19  C   UNL     1      -0.168  11.144  20.917  0.00  0.00    +0.000 A 
ATOM     20  C   UNL     1      -0.953  11.594  21.972  0.00  0.00    +0.000 A 
ATOM     21  C   UNL     1      -1.084  10.761  23.069  0.00  0.00    +0.000 A 
ATOM     22  C   UNL     1      -0.375   9.546  23.109  0.00  0.00    +0.000 A 
ATOM     23  C   UNL     1       0.430   9.105  22.028  0.00  0.00    +0.000 A 
ATOM     24  C   UNL     1       0.492   9.893  20.899  0.00  0.00    +0.000 A 
ENDBRANCH  13  14
ENDBRANCH   3  13
TORSDOF 5
ENDMDL
MODEL 8
REMARK VINA RESULT:      -7.2      4.215      8.005
REMARK  Name = 
REMARK  8 active torsions:
REMARK  status: ('A' for Active; 'I' for Inactive)
REMARK    1  A    between atoms: C_1  and  O_2
REMARK    2  A    between atoms: O_2  and  C_3
REMARK    3  A    between atoms: C_5  and  C_6
REMARK    4  A    between atoms: C_6  and  C_7
REMARK    5  A    between atoms: C_19  and  O_20
REMARK    6  A    between atoms: O_20  and  C_21
REMARK    7  A    between atoms: C_22  and  O_23
REMARK    8  A    between atoms: O_23  and  C_24
REMARK                            x       y       z     vdW  Elec       q    Type
REMARK                         _______ _______ _______ _____ _____    ______ ____
ROOT
ATOM      1  C   UNL     1       1.176   9.841  21.409  0.00  0.00    +0.000 A 
ATOM      2  C   UNL     1       1.419   8.757  20.516  0.00  0.00    +0.000 A 
ATOM      3  C   UNL     1       1.451   8.909  19.113  0.00  0.00    +0.000 A 
ATOM      4  C   UNL     1       1.208  10.211  18.648  0.00  0.00    +0.000 A 
ATOM      5  C   UNL     1       0.961  11.303  19.508  0.00  0.00    +0.000 A 
ATOM      6  C   UNL     1       0.923  11.132  20.909  0.00  0.00    +0.000 A 
ENDROOT
BRANCH   1   8
ATOM      7  C   UNL     1      -0.153   9.422  23.358  0.00  0.00    +0.000 C 
ATOM      8  O   UNL     1       1.124   9.665  22.773  0.00  0.00    +0.000 OA
ENDBRANCH   1   8
BRANCH   5   9
ATOM      9  O   UNL     1       0.721  12.467  18.812  0.00  0.00    +0.000 OA
ATOM     10  C   UNL     1      -0.589  12.671  18.295  0.00  0.00    +0.000 C 
ENDBRANCH   5   9
BRANCH   6  11
ATOM     11  O   UNL     1       0.620  12.263  21.611  0.00  0.00    +0.000 OA
ATOM     12  C   UNL     1      -0.684  12.665  21.988  0.00  0.00    +0.000 C 
ENDBRANCH   6  11
BRANCH   3  13
ATOM     13  C   UNL     1       1.724   7.819  18.037  0.00  0.00    +0.000 C 
BRANCH  13  14
ATOM     14  C   UNL     1       3.094   7.139  17.958  0.00  0.00    +0.000 C 
ATOM     15  O   UNL     1       4.068   7.746  17.495  0.00  0.00    +0.000 OA
ATOM     16  N   UNL     1       3.269   5.799  18.303  0.00  0.00    +0.000 N 
ATOM     17  C   UNL     1       4.562   5.179  17.938  0.00  0.00    +0.000 C 
ATOM     18  C   UNL     1       4.340   3.676  17.985  0.00  0.00    +0.000 C 
ATOM     19  C   UNL     1       3.353   3.645  19.107  0.00  0.00    +0.000 A 
ATOM     20  C   UNL     1       3.169   2.587  19.989  0.00  0.00    +0.000 A 
ATOM     21  C   UNL     1       2.229   2.749  20.991  0.00  0.00    +0.000 A 
ATOM     22  C   UNL     1       1.457   3.925  21.038  0.00  0.00    +0.000 A 
ATOM     23  C   UNL     1       1.650   4.992  20.123  0.00  0.00    +0.000 A 
ATOM     24  C   UNL     1       2.645   4.868  19.179  0.00  0.00    +0.000 A 
ENDBRANCH  13  14
ENDBRANCH   3  13
TORSDOF 5
ENDMDL
MODEL 9
REMARK VINA RESULT:      -7.1      3.760      7.571
REMARK  Name = 
REMARK  8 active torsions:
REMARK  status: ('A' for Active; 'I' for Inactive)
REMARK    1  A    between atoms: C_1  and  O_2
REMARK    2  A    between atoms: O_2  and  C_3
REMARK    3  A    between atoms: C_5  and  C_6
REMARK    4  A    between atoms: C_6  and  C_7
REMARK    5  A    between atoms: C_19  and  O_20
REMARK    6  A    between atoms: O_20  and  C_21
REMARK    7  A    between atoms: C_22  and  O_23
REMARK    8  A    between atoms: O_23  and  C_24
REMARK                            x       y       z     vdW  Elec       q    Type
REMARK                         _______ _______ _______ _____ _____    ______ ____
ROOT
ATOM      1  C   UNL     1       1.387   9.591  18.807  0.00  0.00    +0.000 A 
ATOM      2  C   UNL     1       2.004   8.327  19.035  0.00  0.00    +0.000 A 
ATOM      3  C   UNL     1       1.767   7.552  20.191  0.00  0.00    +0.000 A 
ATOM      4  C   UNL     1       0.884   8.122  21.120  0.00  0.00    +0.000 A 
ATOM      5  C   UNL     1       0.260   9.373  20.924  0.00  0.00    +0.000 A 
ATOM      6  C   UNL     1       0.516  10.140  19.766  0.00  0.00    +0.000 A 
ENDROOT
BRANCH   1   8
ATOM      7  C   UNL     1       2.461  11.505  17.846  0.00  0.00    +0.000 C 
ATOM      8  O   UNL     1       1.653  10.343  17.685  0.00  0.00    +0.000 OA
ENDBRANCH   1   8
BRANCH   5   9
ATOM      9  O   UNL     1      -0.536   9.729  21.991  0.00  0.00    +0.000 OA
ATOM     10  C   UNL     1      -0.021   9.518  23.300  0.00  0.00    +0.000 C 
ENDBRANCH   5   9
BRANCH   6  11
ATOM     11  O   UNL     1      -0.115  11.352  19.737  0.00  0.00    +0.000 OA
ATOM     12  C   UNL     1      -1.323  11.628  19.054  0.00  0.00    +0.000 C 
ENDBRANCH   6  11
BRANCH   3  13
ATOM     13  C   UNL     1       2.358   6.158  20.547  0.00  0.00    +0.000 C 
BRANCH  13  14
ATOM     14  C   UNL     1       2.001   4.930  19.704  0.00  0.00    +0.000 C 
ATOM     15  O   UNL     1       0.982   4.274  19.954  0.00  0.00    +0.000 OA
ATOM     16  N   UNL     1       2.850   4.453  18.705  0.00  0.00    +0.000 N 
ATOM     17  C   UNL     1       2.538   3.121  18.143  0.00  0.00    +0.000 C 
ATOM     18  C   UNL     1       3.805   2.642  17.456  0.00  0.00    +0.000 C 
ATOM     19  C   UNL     1       4.308   3.971  16.991  0.00  0.00    +0.000 A 
ATOM     20  C   UNL     1       5.101   4.186  15.871  0.00  0.00    +0.000 A 
ATOM     21  C   UNL     1       5.444   5.493  15.574  0.00  0.00    +0.000 A 
ATOM     22  C   UNL     1       5.047   6.530  16.439  0.00  0.00    +0.000 A 
ATOM     23  C   UNL     1       4.246   6.293  17.586  0.00  0.00    +0.000 A 
ATOM     24  C   UNL     1       3.831   5.003  17.834  0.00  0.00    +0.000 A 
ENDBRANCH  13  14
ENDBRANCH   3  13
TORSDOF 5
ENDMDL
