MODEL 1
REMARK VINA RESULT:      -7.5      0.000      0.000
REMARK  Name = 
REMARK  11 active torsions:
REMARK  status: ('A' for Active; 'I' for Inactive)
REMARK    1  A    between atoms: C_1  and  C_2
REMARK    2  A    between atoms: C_2  and  C_3
REMARK    3  A    between atoms: C_3  and  O_4
REMARK    4  A    between atoms: O_4  and  C_5
REMARK    5  A    between atoms: C_8  and  N_9
REMARK    6  A    between atoms: C_12  and  O_13
REMARK    7  A    between atoms: O_13  and  C_14
REMARK    8  A    between atoms: C_17  and  C_18
REMARK    9  A    between atoms: C_18  and  C_19
REMARK   10  A    between atoms: C_18  and  N_20
REMARK   11  A    between atoms: C_21  and  C_22
REMARK                            x       y       z     vdW  Elec       q    Type
REMARK                         _______ _______ _______ _____ _____    ______ ____
ROOT
ATOM      1  N   UNL     1       1.915   8.092  19.937  0.00  0.00    +0.000 N 
ATOM      2  C   UNL     1       2.244   8.379  18.550  0.00  0.00    +0.000 C 
ATOM      3  C   UNL     1       2.053   7.039  17.862  0.00  0.00    +0.000 C 
ATOM      4  C   UNL     1       2.559   6.027  18.890  0.00  0.00    +0.000 C 
ATOM      5  C   UNL     1       2.098   6.656  20.223  0.00  0.00    +0.000 C 
ENDROOT
BRANCH   1   9
ATOM      6  C   UNL     1      -0.307  10.489  22.495  0.00  0.00    +0.000 A 
ATOM      7  C   UNL     1      -0.639  10.501  21.157  0.00  0.00    +0.000 A 
ATOM      8  C   UNL     1       0.111   9.707  20.285  0.00  0.00    +0.000 A 
ATOM      9  C   UNL     1       1.145   8.887  20.753  0.00  0.00    +0.000 A 
ATOM     10  C   UNL     1       1.350   8.946  22.135  0.00  0.00    +0.000 A 
ATOM     11  N   UNL     1       0.663   9.714  23.012  0.00  0.00    +0.000 NA
BRANCH   6  12
ATOM     12  O   UNL     1      -1.017  11.326  23.332  0.00  0.00    +0.000 OA
BRANCH  12  13
ATOM     13  C   UNL     1      -1.688  12.342  22.583  0.00  0.00    +0.000 C 
BRANCH  13  15
ATOM     14  C   UNL     1      -1.792  14.804  23.014  0.00  0.00    +0.000 C 
ATOM     15  C   UNL     1      -0.887  13.633  22.670  0.00  0.00    +0.000 C 
ENDBRANCH  13  15
ENDBRANCH  12  13
ENDBRANCH   6  12
ENDBRANCH   1   9
BRANCH   4  16
ATOM     16  O   UNL     1       3.988   5.926  18.893  0.00  0.00    +0.000 OA
BRANCH  16  17
ATOM     17  C   UNL     1       4.554   5.372  17.778  0.00  0.00    +0.000 A 
ATOM     18  C   UNL     1       4.313   4.074  17.334  0.00  0.00    +0.000 A 
ATOM     19  C   UNL     1       4.842   3.633  16.121  0.00  0.00    +0.000 A 
ATOM     20  C   UNL     1       5.644   4.472  15.336  0.00  0.00    +0.000 A 
ATOM     21  C   UNL     1       5.927   5.761  15.816  0.00  0.00    +0.000 A 
ATOM     22  C   UNL     1       5.364   6.212  17.017  0.00  0.00    +0.000 A 
BRANCH  20  23
ATOM     23  C   UNL     1       6.133   3.973  13.991  0.00  0.00    +0.000 C 
ATOM     24  C   UNL     1       7.294   4.812  13.457  0.00  0.00    +0.000 C 
BRANCH  23  25
ATOM     25  N   UNL     1       5.036   3.924  13.039  0.00  0.00    +0.000 N 
ATOM     26  C   UNL     1       5.058   3.096  11.944  0.00  0.00    +0.000 C 
ATOM     27  C   UNL     1       3.866   3.240  11.037  0.00  0.00    +0.000 C 
ATOM     28  O   UNL     1       5.968   2.311  11.701  0.00  0.00    +0.000 OA
ATOM     29  H   UNL     1       4.263   4.562  13.163  0.00  0.00    +0.000 HD
ENDBRANCH  23  25
ENDBRANCH  20  23
ENDBRANCH  16  17
ENDBRANCH   4  16
TORSDOF 8
ENDMDL
MODEL 2
REMARK VINA RESULT:      -7.4      2.039     11.174
REMARK  Name = 
REMARK  11 active torsions:
REMARK  status: ('A' for Active; 'I' for Inactive)
REMARK    1  A    between atoms: C_1  and  C_2
REMARK    2  A    between atoms: C_2  and  C_3
REMARK    3  A    between atoms: C_3  and  O_4
REMARK    4  A    between atoms: O_4  and  C_5
REMARK    5  A    between atoms: C_8  and  N_9
REMARK    6  A    between atoms: C_12  and  O_13
REMARK    7  A    between atoms: O_13  and  C_14
REMARK    8  A    between atoms: C_17  and  C_18
REMARK    9  A    between atoms: C_18  and  C_19
REMARK   10  A    between atoms: C_18  and  N_20
REMARK   11  A    between atoms: C_21  and  C_22
REMARK                            x       y       z     vdW  Elec       q    Type
REMARK                         _______ _______ _______ _____ _____    ______ ____
ROOT
ATOM      1  N   UNL     1       3.448   6.281  18.895  0.00  0.00    +0.000 N 
ATOM      2  C   UNL     1       3.321   5.443  20.077  0.00  0.00    +0.000 C 
ATOM      3  C   UNL     1       1.839   5.517  20.399  0.00  0.00    +0.000 C 
ATOM      4  C   UNL     1       1.467   6.963  20.072  0.00  0.00    +0.000 C 
ATOM      5  C   UNL     1       2.340   7.254  18.831  0.00  0.00    +0.000 C 
ENDROOT
BRANCH   1   9
ATOM      6  C   UNL     1       5.764   5.463  15.549  0.00  0.00    +0.000 A 
ATOM      7  C   UNL     1       5.015   4.433  16.077  0.00  0.00    +0.000 A 
ATOM      8  C   UNL     1       4.240   4.694  17.210  0.00  0.00    +0.000 A 
ATOM      9  C   UNL     1       4.189   5.973  17.778  0.00  0.00    +0.000 A 
ATOM     10  C   UNL     1       4.969   6.930  17.122  0.00  0.00    +0.000 A 
ATOM     11  N   UNL     1       5.748   6.717  16.035  0.00  0.00    +0.000 NA
BRANCH   6  12
ATOM     12  O   UNL     1       6.571   5.172  14.468  0.00  0.00    +0.000 OA
BRANCH  12  13
ATOM     13  C   UNL     1       6.281   3.869  13.956  0.00  0.00    +0.000 C 
BRANCH  13  15
ATOM     14  C   UNL     1       5.810   2.632  11.832  0.00  0.00    +0.000 C 
ATOM     15  C   UNL     1       6.402   3.894  12.439  0.00  0.00    +0.000 C 
ENDBRANCH  13  15
ENDBRANCH  12  13
ENDBRANCH   6  12
ENDBRANCH   1   9
BRANCH   4  16
ATOM     16  O   UNL     1       1.834   7.868  21.121  0.00  0.00    +0.000 OA
BRANCH  16  17
ATOM     17  C   UNL     1       1.048   8.980  21.257  0.00  0.00    +0.000 A 
ATOM     18  C   UNL     1       0.830   9.919  20.252  0.00  0.00    +0.000 A 
ATOM     19  C   UNL     1      -0.080  10.958  20.442  0.00  0.00    +0.000 A 
ATOM     20  C   UNL     1      -0.774  11.097  21.651  0.00  0.00    +0.000 A 
ATOM     21  C   UNL     1      -0.510  10.178  22.679  0.00  0.00    +0.000 A 
ATOM     22  C   UNL     1       0.378   9.114  22.471  0.00  0.00    +0.000 A 
BRANCH  20  23
ATOM     23  C   UNL     1      -1.808  12.198  21.782  0.00  0.00    +0.000 C 
ATOM     24  C   UNL     1      -1.229  13.569  21.435  0.00  0.00    +0.000 C 
BRANCH  23  25
ATOM     25  N   UNL     1      -2.389  12.192  23.114  0.00  0.00    +0.000 N 
ATOM     26  C   UNL     1      -3.735  12.370  23.322  0.00  0.00    +0.000 C 
ATOM     27  C   UNL     1      -4.136  12.405  24.772  0.00  0.00    +0.000 C 
ATOM     28  O   UNL     1      -4.553  12.505  22.418  0.00  0.00    +0.000 OA
ATOM     29  H   UNL     1      -1.771  12.110  23.908  0.00  0.00    +0.000 HD
ENDBRANCH  23  25
ENDBRANCH  20  23
ENDBRANCH  16  17
ENDBRANCH   4  16
TORSDOF 8
ENDMDL
MODEL 3
REMARK VINA RESULT:      -7.3      2.676      9.890
REMARK  Name = 
REMARK  11 active torsions:
REMARK  status: ('A' for Active; 'I' for Inactive)
REMARK    1  A    between atoms: C_1  and  C_2
REMARK    2  A    between atoms: C_2  and  C_3
REMARK    3  A    between atoms: C_3  and  O_4
REMARK    4  A    between atoms: O_4  and  C_5
REMARK    5  A    between atoms: C_8  and  N_9
REMARK    6  A    between atoms: C_12  and  O_13
REMARK    7  A    between atoms: O_13  and  C_14
REMARK    8  A    between atoms: C_17  and  C_18
REMARK    9  A    between atoms: C_18  and  C_19
REMARK   10  A    between atoms: C_18  and  N_20
REMARK   11  A    between atoms: C_21  and  C_22
REMARK                            x       y       z     vdW  Elec       q    Type
REMARK                         _______ _______ _______ _____ _____    ______ ____
ROOT
ATOM      1  N   UNL     1       3.940   5.881  18.253  0.00  0.00    +0.000 N 
ATOM      2  C   UNL     1       4.199   5.403  19.602  0.00  0.00    +0.000 C 
ATOM      3  C   UNL     1       2.808   5.157  20.158  0.00  0.00    +0.000 C 
ATOM      4  C   UNL     1       1.975   6.298  19.573  0.00  0.00    +0.000 C 
ATOM      5  C   UNL     1       2.584   6.459  18.162  0.00  0.00    +0.000 C 
ENDROOT
BRANCH   1   9
ATOM      6  C   UNL     1       6.049   4.827  14.837  0.00  0.00    +0.000 A 
ATOM      7  C   UNL     1       5.644   3.813  15.678  0.00  0.00    +0.000 A 
ATOM      8  C   UNL     1       4.943   4.157  16.838  0.00  0.00    +0.000 A 
ATOM      9  C   UNL     1       4.621   5.489  17.125  0.00  0.00    +0.000 A 
ATOM     10  C   UNL     1       5.062   6.410  16.169  0.00  0.00    +0.000 A 
ATOM     11  N   UNL     1       5.759   6.124  15.045  0.00  0.00    +0.000 NA
BRANCH   6  12
ATOM     12  O   UNL     1       6.793   4.474  13.730  0.00  0.00    +0.000 OA
BRANCH  12  13
ATOM     13  C   UNL     1       6.238   3.321  13.093  0.00  0.00    +0.000 C 
BRANCH  13  15
ATOM     14  C   UNL     1       4.335   3.160  11.477  0.00  0.00    +0.000 C 
ATOM     15  C   UNL     1       5.731   3.713  11.712  0.00  0.00    +0.000 C 
ENDBRANCH  13  15
ENDBRANCH  12  13
ENDBRANCH   6  12
ENDBRANCH   1   9
BRANCH   4  16
ATOM     16  O   UNL     1       2.148   7.523  20.297  0.00  0.00    +0.000 OA
BRANCH  16  17
ATOM     17  C   UNL     1       1.438   8.597  19.837  0.00  0.00    +0.000 A 
ATOM     18  C   UNL     1       1.608   9.176  18.582  0.00  0.00    +0.000 A 
ATOM     19  C   UNL     1       0.758  10.195  18.153  0.00  0.00    +0.000 A 
ATOM     20  C   UNL     1      -0.267  10.675  18.979  0.00  0.00    +0.000 A 
ATOM     21  C   UNL     1      -0.398  10.124  20.264  0.00  0.00    +0.000 A 
ATOM     22  C   UNL     1       0.435   9.076  20.677  0.00  0.00    +0.000 A 
BRANCH  20  23
ATOM     23  C   UNL     1      -1.212  11.731  18.439  0.00  0.00    +0.000 C 
ATOM     24  C   UNL     1      -2.396  11.970  19.375  0.00  0.00    +0.000 C 
BRANCH  23  25
ATOM     25  N   UNL     1      -1.658  11.376  17.103  0.00  0.00    +0.000 N 
ATOM     26  C   UNL     1      -2.517  10.328  16.877  0.00  0.00    +0.000 C 
ATOM     27  C   UNL     1      -2.806  10.069  15.423  0.00  0.00    +0.000 C 
ATOM     28  O   UNL     1      -3.005   9.642  17.769  0.00  0.00    +0.000 OA
ATOM     29  H   UNL     1      -1.277  11.883  16.317  0.00  0.00    +0.000 HD
ENDBRANCH  23  25
ENDBRANCH  20  23
ENDBRANCH  16  17
ENDBRANCH   4  16
TORSDOF 8
ENDMDL
MODEL 4
REMARK VINA RESULT:      -7.1      2.137     11.140
REMARK  Name = 
REMARK  11 active torsions:
REMARK  status: ('A' for Active; 'I' for Inactive)
REMARK    1  A    between atoms: C_1  and  C_2
REMARK    2  A    between atoms: C_2  and  C_3
REMARK    3  A    between atoms: C_3  and  O_4
REMARK    4  A    between atoms: O_4  and  C_5
REMARK    5  A    between atoms: C_8  and  N_9
REMARK    6  A    between atoms: C_12  and  O_13
REMARK    7  A    between atoms: O_13  and  C_14
REMARK    8  A    between atoms: C_17  and  C_18
REMARK    9  A    between atoms: C_18  and  C_19
REMARK   10  A    between atoms: C_18  and  N_20
REMARK   11  A    between atoms: C_21  and  C_22
REMARK                            x       y       z     vdW  Elec       q    Type
REMARK                         _______ _______ _______ _____ _____    ______ ____
ROOT
ATOM      1  N   UNL     1       3.320   6.086  19.374  0.00  0.00    +0.000 N 
ATOM      2  C   UNL     1       2.856   5.290  20.499  0.00  0.00    +0.000 C 
ATOM      3  C   UNL     1       1.372   5.603  20.559  0.00  0.00    +0.000 C 
ATOM      4  C   UNL     1       1.299   7.087  20.202  0.00  0.00    +0.000 C 
ATOM      5  C   UNL     1       2.410   7.224  19.138  0.00  0.00    +0.000 C 
ENDROOT
BRANCH   1   9
ATOM      6  C   UNL     1       5.897   4.651  16.453  0.00  0.00    +0.000 A 
ATOM      7  C   UNL     1       5.491   5.965  16.360  0.00  0.00    +0.000 A 
ATOM      8  C   UNL     1       4.614   6.455  17.331  0.00  0.00    +0.000 A 
ATOM      9  C   UNL     1       4.186   5.654  18.397  0.00  0.00    +0.000 A 
ATOM     10  C   UNL     1       4.703   4.354  18.388  0.00  0.00    +0.000 A 
ATOM     11  N   UNL     1       5.537   3.833  17.459  0.00  0.00    +0.000 NA
BRANCH   6  12
ATOM     12  O   UNL     1       6.713   4.165  15.451  0.00  0.00    +0.000 OA
BRANCH  12  13
ATOM     13  C   UNL     1       6.410   4.793  14.203  0.00  0.00    +0.000 C 
BRANCH  13  15
ATOM     14  C   UNL     1       6.574   3.384  12.142  0.00  0.00    +0.000 C 
ATOM     15  C   UNL     1       5.690   3.794  13.308  0.00  0.00    +0.000 C 
ENDBRANCH  13  15
ENDBRANCH  12  13
ENDBRANCH   6  12
ENDBRANCH   1   9
BRANCH   4  16
ATOM     16  O   UNL     1       1.615   7.930  21.316  0.00  0.00    +0.000 OA
BRANCH  16  17
ATOM     17  C   UNL     1       0.754   8.967  21.549  0.00  0.00    +0.000 A 
ATOM     18  C   UNL     1       0.160   9.237  22.779  0.00  0.00    +0.000 A 
ATOM     19  C   UNL     1      -0.613  10.385  22.953  0.00  0.00    +0.000 A 
ATOM     20  C   UNL     1      -0.830  11.276  21.893  0.00  0.00    +0.000 A 
ATOM     21  C   UNL     1      -0.273  10.969  20.642  0.00  0.00    +0.000 A 
ATOM     22  C   UNL     1       0.532   9.834  20.481  0.00  0.00    +0.000 A 
BRANCH  20  23
ATOM     23  C   UNL     1      -1.615  12.547  22.152  0.00  0.00    +0.000 C 
ATOM     24  C   UNL     1      -0.712  13.779  22.187  0.00  0.00    +0.000 C 
BRANCH  23  25
ATOM     25  N   UNL     1      -2.389  12.425  23.376  0.00  0.00    +0.000 N 
ATOM     26  C   UNL     1      -3.762  12.424  23.372  0.00  0.00    +0.000 C 
ATOM     27  C   UNL     1      -4.383  12.362  24.741  0.00  0.00    +0.000 C 
ATOM     28  O   UNL     1      -4.441  12.483  22.352  0.00  0.00    +0.000 OA
ATOM     29  H   UNL     1      -1.896  12.397  24.256  0.00  0.00    +0.000 HD
ENDBRANCH  23  25
ENDBRANCH  20  23
ENDBRANCH  16  17
ENDBRANCH   4  16
TORSDOF 8
ENDMDL
MODEL 5
REMARK VINA RESULT:      -7.1      1.799     11.195
REMARK  Name = 
REMARK  11 active torsions:
REMARK  status: ('A' for Active; 'I' for Inactive)
REMARK    1  A    between atoms: C_1  and  C_2
REMARK    2  A    between atoms: C_2  and  C_3
REMARK    3  A    between atoms: C_3  and  O_4
REMARK    4  A    between atoms: O_4  and  C_5
REMARK    5  A    between atoms: C_8  and  N_9
REMARK    6  A    between atoms: C_12  and  O_13
REMARK    7  A    between atoms: O_13  and  C_14
REMARK    8  A    between atoms: C_17  and  C_18
REMARK    9  A    between atoms: C_18  and  C_19
REMARK   10  A    between atoms: C_18  and  N_20
REMARK   11  A    between atoms: C_21  and  C_22
REMARK                            x       y       z     vdW  Elec       q    Type
REMARK                         _______ _______ _______ _____ _____    ______ ____
ROOT
ATOM      1  N   UNL     1       3.599   6.260  18.574  0.00  0.00    +0.000 N 
ATOM      2  C   UNL     1       3.599   5.546  19.841  0.00  0.00    +0.000 C 
ATOM      3  C   UNL     1       2.137   5.564  20.252  0.00  0.00    +0.000 C 
ATOM      4  C   UNL     1       1.651   6.943  19.805  0.00  0.00    +0.000 C 
ATOM      5  C   UNL     1       2.426   7.152  18.485  0.00  0.00    +0.000 C 
ENDROOT
BRANCH   1   9
ATOM      6  C   UNL     1       5.760   5.232  15.182  0.00  0.00    +0.000 A 
ATOM      7  C   UNL     1       5.094   4.225  15.847  0.00  0.00    +0.000 A 
ATOM      8  C   UNL     1       4.373   4.557  16.997  0.00  0.00    +0.000 A 
ATOM      9  C   UNL     1       4.289   5.880  17.446  0.00  0.00    +0.000 A 
ATOM     10  C   UNL     1       4.983   6.805  16.659  0.00  0.00    +0.000 A 
ATOM     11  N   UNL     1       5.709   6.524  15.551  0.00  0.00    +0.000 NA
BRANCH   6  12
ATOM     12  O   UNL     1       6.518   4.876  14.085  0.00  0.00    +0.000 OA
BRANCH  12  13
ATOM     13  C   UNL     1       6.259   3.521  13.709  0.00  0.00    +0.000 C 
BRANCH  13  15
ATOM     14  C   UNL     1       4.713   3.172  11.774  0.00  0.00    +0.000 C 
ATOM     15  C   UNL     1       6.149   3.439  12.194  0.00  0.00    +0.000 C 
ENDBRANCH  13  15
ENDBRANCH  12  13
ENDBRANCH   6  12
ENDBRANCH   1   9
BRANCH   4  16
ATOM     16  O   UNL     1       2.019   7.974  20.729  0.00  0.00    +0.000 OA
BRANCH  16  17
ATOM     17  C   UNL     1       1.044   8.884  21.033  0.00  0.00    +0.000 A 
ATOM     18  C   UNL     1       0.698   9.267  22.327  0.00  0.00    +0.000 A 
ATOM     19  C   UNL     1      -0.228  10.288  22.537  0.00  0.00    +0.000 A 
ATOM     20  C   UNL     1      -0.847  10.933  21.459  0.00  0.00    +0.000 A 
ATOM     21  C   UNL     1      -0.534  10.505  20.159  0.00  0.00    +0.000 A 
ATOM     22  C   UNL     1       0.423   9.504  19.951  0.00  0.00    +0.000 A 
BRANCH  20  23
ATOM     23  C   UNL     1      -1.790  12.088  21.737  0.00  0.00    +0.000 C 
ATOM     24  C   UNL     1      -2.282  12.748  20.449  0.00  0.00    +0.000 C 
BRANCH  23  25
ATOM     25  N   UNL     1      -1.158  13.057  22.617  0.00  0.00    +0.000 N 
ATOM     26  C   UNL     1      -1.881  13.811  23.508  0.00  0.00    +0.000 C 
ATOM     27  C   UNL     1      -1.061  14.809  24.280  0.00  0.00    +0.000 C 
ATOM     28  O   UNL     1      -3.092  13.706  23.666  0.00  0.00    +0.000 OA
ATOM     29  H   UNL     1      -0.164  13.215  22.525  0.00  0.00    +0.000 HD
ENDBRANCH  23  25
ENDBRANCH  20  23
ENDBRANCH  16  17
ENDBRANCH   4  16
TORSDOF 8
ENDMDL
MODEL 6
REMARK VINA RESULT:      -7.1      2.744     10.209
REMARK  Name = 
REMARK  11 active torsions:
REMARK  status: ('A' for Active; 'I' for Inactive)
REMARK    1  A    between atoms: C_1  and  C_2
REMARK    2  A    between atoms: C_2  and  C_3
REMARK    3  A    between atoms: C_3  and  O_4
REMARK    4  A    between atoms: O_4  and  C_5
REMARK    5  A    between atoms: C_8  and  N_9
REMARK    6  A    between atoms: C_12  and  O_13
REMARK    7  A    between atoms: O_13  and  C_14
REMARK    8  A    between atoms: C_17  and  C_18
REMARK    9  A    between atoms: C_18  and  C_19
REMARK   10  A    between atoms: C_18  and  N_20
REMARK   11  A    between atoms: C_21  and  C_22
REMARK                            x       y       z     vdW  Elec       q    Type
REMARK                         _______ _______ _______ _____ _____    ______ ____
ROOT
ATOM      1  N   UNL     1       3.928   5.952  18.247  0.00  0.00    +0.000 N 
ATOM      2  C   UNL     1       4.090   5.583  19.644  0.00  0.00    +0.000 C 
ATOM      3  C   UNL     1       2.661   5.496  20.150  0.00  0.00    +0.000 C 
ATOM      4  C   UNL     1       1.949   6.638  19.425  0.00  0.00    +0.000 C 
ATOM      5  C   UNL     1       2.629   6.620  18.038  0.00  0.00    +0.000 C 
ENDROOT
BRANCH   1   9
ATOM      6  C   UNL     1       6.100   4.423  15.057  0.00  0.00    +0.000 A 
ATOM      7  C   UNL     1       5.465   3.525  15.889  0.00  0.00    +0.000 A 
ATOM      8  C   UNL     1       4.741   4.028  16.973  0.00  0.00    +0.000 A 
ATOM      9  C   UNL     1       4.623   5.406  17.193  0.00  0.00    +0.000 A 
ATOM     10  C   UNL     1       5.288   6.201  16.254  0.00  0.00    +0.000 A 
ATOM     11  N   UNL     1       6.015   5.757  15.203  0.00  0.00    +0.000 NA
BRANCH   6  12
ATOM     12  O   UNL     1       6.862   3.906  14.029  0.00  0.00    +0.000 OA
BRANCH  12  13
ATOM     13  C   UNL     1       6.325   4.286  12.760  0.00  0.00    +0.000 C 
BRANCH  13  15
ATOM     14  C   UNL     1       4.371   3.281  11.564  0.00  0.00    +0.000 C 
ATOM     15  C   UNL     1       5.789   3.047  12.057  0.00  0.00    +0.000 C 
ENDBRANCH  13  15
ENDBRANCH  12  13
ENDBRANCH   6  12
ENDBRANCH   1   9
BRANCH   4  16
ATOM     16  O   UNL     1       2.189   7.908  20.045  0.00  0.00    +0.000 OA
BRANCH  16  17
ATOM     17  C   UNL     1       1.272   8.888  19.780  0.00  0.00    +0.000 A 
ATOM     18  C   UNL     1       0.293   9.313  20.674  0.00  0.00    +0.000 A 
ATOM     19  C   UNL     1      -0.523  10.400  20.362  0.00  0.00    +0.000 A 
ATOM     20  C   UNL     1      -0.396  11.070  19.138  0.00  0.00    +0.000 A 
ATOM     21  C   UNL     1       0.557  10.602  18.220  0.00  0.00    +0.000 A 
ATOM     22  C   UNL     1       1.400   9.533  18.551  0.00  0.00    +0.000 A 
BRANCH  20  23
ATOM     23  C   UNL     1      -1.255  12.292  18.877  0.00  0.00    +0.000 C 
ATOM     24  C   UNL     1      -1.122  13.333  19.988  0.00  0.00    +0.000 C 
BRANCH  23  25
ATOM     25  N   UNL     1      -2.641  11.904  18.681  0.00  0.00    +0.000 N 
ATOM     26  C   UNL     1      -3.105  11.446  17.472  0.00  0.00    +0.000 C 
ATOM     27  C   UNL     1      -4.583  11.163  17.445  0.00  0.00    +0.000 C 
ATOM     28  O   UNL     1      -2.396  11.288  16.485  0.00  0.00    +0.000 OA
ATOM     29  H   UNL     1      -3.289  12.031  19.445  0.00  0.00    +0.000 HD
ENDBRANCH  23  25
ENDBRANCH  20  23
ENDBRANCH  16  17
ENDBRANCH   4  16
TORSDOF 8
ENDMDL
MODEL 7
REMARK VINA RESULT:      -7.0      2.649     10.362
REMARK  Name = 
REMARK  11 active torsions:
REMARK  status: ('A' for Active; 'I' for Inactive)
REMARK    1  A    between atoms: C_1  and  C_2
REMARK    2  A    between atoms: C_2  and  C_3
REMARK    3  A    between atoms: C_3  and  O_4
REMARK    4  A    between atoms: O_4  and  C_5
REMARK    5  A    between atoms: C_8  and  N_9
REMARK    6  A    between atoms: C_12  and  O_13
REMARK    7  A    between atoms: O_13  and  C_14
REMARK    8  A    between atoms: C_17  and  C_18
REMARK    9  A    between atoms: C_18  and  C_19
REMARK   10  A    between atoms: C_18  and  N_20
REMARK   11  A    between atoms: C_21  and  C_22
REMARK                            x       y       z     vdW  Elec       q    Type
REMARK                         _______ _______ _______ _____ _____    ______ ____
ROOT
ATOM      1  N   UNL     1       4.049   5.751  18.143  0.00  0.00    +0.000 N 
ATOM      2  C   UNL     1       4.301   5.339  19.514  0.00  0.00    +0.000 C 
ATOM      3  C   UNL     1       2.907   5.196  20.098  0.00  0.00    +0.000 C 
ATOM      4  C   UNL     1       2.125   6.342  19.456  0.00  0.00    +0.000 C 
ATOM      5  C   UNL     1       2.723   6.390  18.033  0.00  0.00    +0.000 C 
ENDROOT
BRANCH   1   9
ATOM      6  C   UNL     1       5.944   4.144  14.818  0.00  0.00    +0.000 A 
ATOM      7  C   UNL     1       5.756   5.510  14.851  0.00  0.00    +0.000 A 
ATOM      8  C   UNL     1       5.108   6.060  15.960  0.00  0.00    +0.000 A 
ATOM      9  C   UNL     1       4.695   5.261  17.032  0.00  0.00    +0.000 A 
ATOM     10  C   UNL     1       4.979   3.900  16.883  0.00  0.00    +0.000 A 
ATOM     11  N   UNL     1       5.585   3.322  15.820  0.00  0.00    +0.000 NA
BRANCH   6  12
ATOM     12  O   UNL     1       6.529   3.611  13.687  0.00  0.00    +0.000 OA
BRANCH  12  13
ATOM     13  C   UNL     1       5.641   3.694  12.570  0.00  0.00    +0.000 C 
BRANCH  13  15
ATOM     14  C   UNL     1       7.154   2.185  11.268  0.00  0.00    +0.000 C 
ATOM     15  C   UNL     1       5.735   2.406  11.765  0.00  0.00    +0.000 C 
ENDBRANCH  13  15
ENDBRANCH  12  13
ENDBRANCH   6  12
ENDBRANCH   1   9
BRANCH   4  16
ATOM     16  O   UNL     1       2.368   7.596  20.106  0.00  0.00    +0.000 OA
BRANCH  16  17
ATOM     17  C   UNL     1       1.427   8.568  19.905  0.00  0.00    +0.000 A 
ATOM     18  C   UNL     1       0.496   8.972  20.858  0.00  0.00    +0.000 A 
ATOM     19  C   UNL     1      -0.349  10.053  20.605  0.00  0.00    +0.000 A 
ATOM     20  C   UNL     1      -0.298  10.739  19.385  0.00  0.00    +0.000 A 
ATOM     21  C   UNL     1       0.607  10.292  18.408  0.00  0.00    +0.000 A 
ATOM     22  C   UNL     1       1.478   9.229  18.679  0.00  0.00    +0.000 A 
BRANCH  20  23
ATOM     23  C   UNL     1      -1.183  11.954  19.187  0.00  0.00    +0.000 C 
ATOM     24  C   UNL     1      -1.101  12.919  20.368  0.00  0.00    +0.000 C 
BRANCH  23  25
ATOM     25  N   UNL     1      -2.555  11.545  18.935  0.00  0.00    +0.000 N 
ATOM     26  C   UNL     1      -3.021  11.304  17.666  0.00  0.00    +0.000 C 
ATOM     27  C   UNL     1      -4.485  10.962  17.600  0.00  0.00    +0.000 C 
ATOM     28  O   UNL     1      -2.324  11.371  16.659  0.00  0.00    +0.000 OA
ATOM     29  H   UNL     1      -3.193  11.493  19.716  0.00  0.00    +0.000 HD
ENDBRANCH  23  25
ENDBRANCH  20  23
ENDBRANCH  16  17
ENDBRANCH   4  16
TORSDOF 8
ENDMDL
MODEL 8
REMARK VINA RESULT:      -7.0      2.431     10.406
REMARK  Name = 
REMARK  11 active torsions:
REMARK  status: ('A' for Active; 'I' for Inactive)
REMARK    1  A    between atoms: C_1  and  C_2
REMARK    2  A    between atoms: C_2  and  C_3
REMARK    3  A    between atoms: C_3  and  O_4
REMARK    4  A    between atoms: O_4  and  C_5
REMARK    5  A    between atoms: C_8  and  N_9
REMARK    6  A    between atoms: C_12  and  O_13
REMARK    7  A    between atoms: O_13  and  C_14
REMARK    8  A    between atoms: C_17  and  C_18
REMARK    9  A    between atoms: C_18  and  C_19
REMARK   10  A    between atoms: C_18  and  N_20
REMARK   11  A    between atoms: C_21  and  C_22
REMARK                            x       y       z     vdW  Elec       q    Type
REMARK                         _______ _______ _______ _____ _____    ______ ____
ROOT
ATOM      1  N   UNL     1       4.418   5.853  18.251  0.00  0.00    +0.000 N 
ATOM      2  C   UNL     1       4.558   5.291  19.585  0.00  0.00    +0.000 C 
ATOM      3  C   UNL     1       3.126   4.997  19.992  0.00  0.00    +0.000 C 
ATOM      4  C   UNL     1       2.334   6.165  19.405  0.00  0.00    +0.000 C 
ATOM      5  C   UNL     1       3.068   6.422  18.071  0.00  0.00    +0.000 C 
ENDROOT
BRANCH   1   9
ATOM      6  C   UNL     1       6.912   4.958  15.055  0.00  0.00    +0.000 A 
ATOM      7  C   UNL     1       5.701   4.303  15.126  0.00  0.00    +0.000 A 
ATOM      8  C   UNL     1       4.859   4.587  16.205  0.00  0.00    +0.000 A 
ATOM      9  C   UNL     1       5.207   5.540  17.169  0.00  0.00    +0.000 A 
ATOM     10  C   UNL     1       6.446   6.154  16.955  0.00  0.00    +0.000 A 
ATOM     11  N   UNL     1       7.301   5.895  15.938  0.00  0.00    +0.000 NA
BRANCH   6  12
ATOM     12  O   UNL     1       7.757   4.619  14.018  0.00  0.00    +0.000 OA
BRANCH  12  13
ATOM     13  C   UNL     1       7.135   4.867  12.755  0.00  0.00    +0.000 C 
BRANCH  13  15
ATOM     14  C   UNL     1       5.594   3.117  11.849  0.00  0.00    +0.000 C 
ATOM     15  C   UNL     1       7.042   3.559  11.983  0.00  0.00    +0.000 C 
ENDBRANCH  13  15
ENDBRANCH  12  13
ENDBRANCH   6  12
ENDBRANCH   1   9
BRANCH   4  16
ATOM     16  O   UNL     1       2.420   7.342  20.218  0.00  0.00    +0.000 OA
BRANCH  16  17
ATOM     17  C   UNL     1       1.582   8.369  19.878  0.00  0.00    +0.000 A 
ATOM     18  C   UNL     1       1.543   8.972  18.623  0.00  0.00    +0.000 A 
ATOM     19  C   UNL     1       0.576   9.933  18.332  0.00  0.00    +0.000 A 
ATOM     20  C   UNL     1      -0.359  10.331  19.296  0.00  0.00    +0.000 A 
ATOM     21  C   UNL     1      -0.280   9.758  20.575  0.00  0.00    +0.000 A 
ATOM     22  C   UNL     1       0.670   8.767  20.853  0.00  0.00    +0.000 A 
BRANCH  20  23
ATOM     23  C   UNL     1      -1.438  11.323  18.908  0.00  0.00    +0.000 C 
ATOM     24  C   UNL     1      -2.329  10.790  17.786  0.00  0.00    +0.000 C 
BRANCH  23  25
ATOM     25  N   UNL     1      -0.845  12.601  18.548  0.00  0.00    +0.000 N 
ATOM     26  C   UNL     1      -0.750  13.637  19.444  0.00  0.00    +0.000 C 
ATOM     27  C   UNL     1      -0.173  14.901  18.867  0.00  0.00    +0.000 C 
ATOM     28  O   UNL     1      -1.110  13.562  20.614  0.00  0.00    +0.000 OA
ATOM     29  H   UNL     1      -0.549  12.742  17.593  0.00  0.00    +0.000 HD
ENDBRANCH  23  25
ENDBRANCH  20  23
ENDBRANCH  16  17
ENDBRANCH   4  16
TORSDOF 8
ENDMDL
MODEL 9
REMARK VINA RESULT:      -7.0      4.464      5.814
REMARK  Name = 
REMARK  11 active torsions:
REMARK  status: ('A' for Active; 'I' for Inactive)
REMARK    1  A    between atoms: C_1  and  C_2
REMARK    2  A    between atoms: C_2  and  C_3
REMARK    3  A    between atoms: C_3  and  O_4
REMARK    4  A    between atoms: O_4  and  C_5
REMARK    5  A    between atoms: C_8  and  N_9
REMARK    6  A    between atoms: C_12  and  O_13
REMARK    7  A    between atoms: O_13  and  C_14
REMARK    8  A    between atoms: C_17  and  C_18
REMARK    9  A    between atoms: C_18  and  C_19
REMARK   10  A    between atoms: C_18  and  N_20
REMARK   11  A    between atoms: C_21  and  C_22
REMARK                            x       y       z     vdW  Elec       q    Type
REMARK                         _______ _______ _______ _____ _____    ______ ____
ROOT
ATOM      1  N   UNL     1      -1.386  10.996  18.733  0.00  0.00    +0.000 N 
ATOM      2  C   UNL     1      -0.537  11.897  19.496  0.00  0.00    +0.000 C 
ATOM      3  C   UNL     1       0.827  11.721  18.853  0.00  0.00    +0.000 C 
ATOM      4  C   UNL     1       0.882  10.230  18.519  0.00  0.00    +0.000 C 
ATOM      5  C   UNL     1      -0.577   9.932  18.108  0.00  0.00    +0.000 C 
ENDROOT
BRANCH   1   9
ATOM      6  C   UNL     1      -5.207  11.983  17.448  0.00  0.00    +0.000 A 
ATOM      7  C   UNL     1      -4.390  11.308  16.567  0.00  0.00    +0.000 A 
ATOM      8  C   UNL     1      -3.097  10.982  16.985  0.00  0.00    +0.000 A 
ATOM      9  C   UNL     1      -2.649  11.290  18.275  0.00  0.00    +0.000 A 
ATOM     10  C   UNL     1      -3.592  11.943  19.075  0.00  0.00    +0.000 A 
ATOM     11  N   UNL     1      -4.845  12.296  18.705  0.00  0.00    +0.000 NA
BRANCH   6  12
ATOM     12  O   UNL     1      -6.458  12.353  16.997  0.00  0.00    +0.000 OA
BRANCH  12  13
ATOM     13  C   UNL     1      -6.885  13.565  17.624  0.00  0.00    +0.000 C 
BRANCH  13  15
ATOM     14  C   UNL     1      -7.055  16.003  17.091  0.00  0.00    +0.000 C 
ATOM     15  C   UNL     1      -7.209  14.592  16.549  0.00  0.00    +0.000 C 
ENDBRANCH  13  15
ENDBRANCH  12  13
ENDBRANCH   6  12
ENDBRANCH   1   9
BRANCH   4  16
ATOM     16  O   UNL     1       1.216   9.431  19.661  0.00  0.00    +0.000 OA
BRANCH  16  17
ATOM     17  C   UNL     1       1.890   8.268  19.404  0.00  0.00    +0.000 A 
ATOM     18  C   UNL     1       1.874   7.148  20.231  0.00  0.00    +0.000 A 
ATOM     19  C   UNL     1       2.496   5.966  19.830  0.00  0.00    +0.000 A 
ATOM     20  C   UNL     1       3.169   5.885  18.605  0.00  0.00    +0.000 A 
ATOM     21  C   UNL     1       3.227   7.034  17.800  0.00  0.00    +0.000 A 
ATOM     22  C   UNL     1       2.571   8.209  18.189  0.00  0.00    +0.000 A 
BRANCH  20  23
ATOM     23  C   UNL     1       3.765   4.556  18.180  0.00  0.00    +0.000 C 
ATOM     24  C   UNL     1       3.266   3.403  19.050  0.00  0.00    +0.000 C 
BRANCH  23  25
ATOM     25  N   UNL     1       5.216   4.628  18.181  0.00  0.00    +0.000 N 
ATOM     26  C   UNL     1       5.951   4.533  17.025  0.00  0.00    +0.000 C 
ATOM     27  C   UNL     1       7.440   4.556  17.236  0.00  0.00    +0.000 C 
ATOM     28  O   UNL     1       5.454   4.423  15.909  0.00  0.00    +0.000 OA
ATOM     29  H   UNL     1       5.694   4.694  19.068  0.00  0.00    +0.000 HD
ENDBRANCH  23  25
ENDBRANCH  20  23
ENDBRANCH  16  17
ENDBRANCH   4  16
TORSDOF 8
ENDMDL
