MODEL 1
REMARK VINA RESULT:      -7.9      0.000      0.000
REMARK  Name = 
REMARK  2 active torsions:
REMARK  status: ('A' for Active; 'I' for Inactive)
REMARK    1  A    between atoms: C_2  and  C_14
REMARK    2  A    between atoms: C_6  and  C_7
REMARK                            x       y       z     vdW  Elec       q    Type
REMARK                         _______ _______ _______ _____ _____    ______ ____
ROOT
ATOM      1  O   UNL     1       2.422   8.378  18.568  0.00  0.00    +0.000 OA
ATOM      2  C   UNL     1       1.873   8.065  19.621  0.00  0.00    +0.000 C 
ATOM      3  N   UNL     1       2.051   6.842  20.239  0.00  0.00    +0.000 N 
ATOM      4  C   UNL     1       2.882   5.891  19.718  0.00  0.00    +0.000 A 
ATOM      5  N   UNL     1       3.727   5.993  18.729  0.00  0.00    +0.000 NA
ATOM      6  C   UNL     1       4.301   4.762  18.467  0.00  0.00    +0.000 A 
ATOM      7  C   UNL     1       3.884   3.743  19.303  0.00  0.00    +0.000 A 
ATOM      8  S   UNL     1       2.781   4.361  20.468  0.00  0.00    +0.000 S 
ATOM      9  H   UNL     1       1.512   6.600  21.056  0.00  0.00    +0.000 HD
ENDROOT
BRANCH   2  10
ATOM     10  C   UNL     1       0.957   8.985  20.302  0.00  0.00    +0.000 A 
ATOM     11  S   UNL     1       0.838   9.041  22.010  0.00  0.00    +0.000 S 
ATOM     12  C   UNL     1      -0.301  10.328  21.986  0.00  0.00    +0.000 A 
ATOM     13  C   UNL     1      -0.895  10.960  23.100  0.00  0.00    +0.000 A 
ATOM     14  C   UNL     1      -1.785  12.016  22.887  0.00  0.00    +0.000 A 
ATOM     15  C   UNL     1      -2.078  12.443  21.601  0.00  0.00    +0.000 A 
ATOM     16  C   UNL     1      -1.498  11.805  20.503  0.00  0.00    +0.000 A 
ATOM     17  C   UNL     1      -0.598  10.721  20.681  0.00  0.00    +0.000 A 
ATOM     18  C   UNL     1       0.100   9.902  19.723  0.00  0.00    +0.000 A 
ATOM     19 CL   UNL     1      -0.161  10.117  18.032  0.00  0.00    +0.000 Cl
ENDBRANCH   2  10
BRANCH   6  20
ATOM     20  C   UNL     1       5.279   4.603  17.342  0.00  0.00    +0.000 A 
ATOM     21  C   UNL     1       4.902   4.238  16.065  0.00  0.00    +0.000 A 
ATOM     22  C   UNL     1       6.015   4.142  15.178  0.00  0.00    +0.000 A 
ATOM     23  C   UNL     1       7.203   4.427  15.814  0.00  0.00    +0.000 A 
ATOM     24  S   UNL     1       6.966   4.834  17.460  0.00  0.00    +0.000 S 
ENDBRANCH   6  20
TORSDOF 2
ENDMDL
MODEL 2
REMARK VINA RESULT:      -7.5      1.412      1.742
REMARK  Name = 
REMARK  2 active torsions:
REMARK  status: ('A' for Active; 'I' for Inactive)
REMARK    1  A    between atoms: C_2  and  C_14
REMARK    2  A    between atoms: C_6  and  C_7
REMARK                            x       y       z     vdW  Elec       q    Type
REMARK                         _______ _______ _______ _____ _____    ______ ____
ROOT
ATOM      1  O   UNL     1       2.322   8.805  17.993  0.00  0.00    +0.000 OA
ATOM      2  C   UNL     1       1.787   8.557  19.070  0.00  0.00    +0.000 C 
ATOM      3  N   UNL     1       1.986   7.379  19.766  0.00  0.00    +0.000 N 
ATOM      4  C   UNL     1       2.824   6.406  19.301  0.00  0.00    +0.000 A 
ATOM      5  N   UNL     1       3.658   6.451  18.299  0.00  0.00    +0.000 NA
ATOM      6  C   UNL     1       4.244   5.212  18.114  0.00  0.00    +0.000 A 
ATOM      7  C   UNL     1       3.848   4.246  19.020  0.00  0.00    +0.000 A 
ATOM      8  S   UNL     1       2.748   4.928  20.152  0.00  0.00    +0.000 S 
ATOM      9  H   UNL     1       1.458   7.186  20.603  0.00  0.00    +0.000 HD
ENDROOT
BRANCH   2  10
ATOM     10  C   UNL     1       0.867   9.509  19.698  0.00  0.00    +0.000 A 
ATOM     11  S   UNL     1      -0.180  10.499  18.770  0.00  0.00    +0.000 S 
ATOM     12  C   UNL     1      -0.911  11.197  20.160  0.00  0.00    +0.000 A 
ATOM     13  C   UNL     1      -1.940  12.163  20.186  0.00  0.00    +0.000 A 
ATOM     14  C   UNL     1      -2.433  12.597  21.420  0.00  0.00    +0.000 A 
ATOM     15  C   UNL     1      -1.924  12.084  22.603  0.00  0.00    +0.000 A 
ATOM     16  C   UNL     1      -0.896  11.139  22.571  0.00  0.00    +0.000 A 
ATOM     17  C   UNL     1      -0.363  10.684  21.336  0.00  0.00    +0.000 A 
ATOM     18  C   UNL     1       0.694   9.748  21.048  0.00  0.00    +0.000 A 
ATOM     19 CL   UNL     1       1.603   9.032  22.328  0.00  0.00    +0.000 Cl
ENDBRANCH   2  10
BRANCH   6  20
ATOM     20  C   UNL     1       5.214   4.990  16.992  0.00  0.00    +0.000 A 
ATOM     21  C   UNL     1       4.954   4.145  15.932  0.00  0.00    +0.000 A 
ATOM     22  C   UNL     1       6.035   4.094  15.002  0.00  0.00    +0.000 A 
ATOM     23  C   UNL     1       7.085   4.895  15.394  0.00  0.00    +0.000 A 
ATOM     24  S   UNL     1       6.751   5.720  16.856  0.00  0.00    +0.000 S 
ENDBRANCH   6  20
TORSDOF 2
ENDMDL
MODEL 3
REMARK VINA RESULT:      -7.3      1.160      1.270
REMARK  Name = 
REMARK  2 active torsions:
REMARK  status: ('A' for Active; 'I' for Inactive)
REMARK    1  A    between atoms: C_2  and  C_14
REMARK    2  A    between atoms: C_6  and  C_7
REMARK                            x       y       z     vdW  Elec       q    Type
REMARK                         _______ _______ _______ _____ _____    ______ ____
ROOT
ATOM      1  O   UNL     1       2.145   8.982  17.627  0.00  0.00    +0.000 OA
ATOM      2  C   UNL     1       1.643   8.800  18.732  0.00  0.00    +0.000 C 
ATOM      3  N   UNL     1       1.893   7.684  19.508  0.00  0.00    +0.000 N 
ATOM      4  C   UNL     1       2.749   6.703  19.095  0.00  0.00    +0.000 A 
ATOM      5  N   UNL     1       3.559   6.697  18.071  0.00  0.00    +0.000 NA
ATOM      6  C   UNL     1       4.177   5.465  17.963  0.00  0.00    +0.000 A 
ATOM      7  C   UNL     1       3.831   4.559  18.948  0.00  0.00    +0.000 A 
ATOM      8  S   UNL     1       2.738   5.291  20.054  0.00  0.00    +0.000 S 
ATOM      9  H   UNL     1       1.391   7.539  20.370  0.00  0.00    +0.000 HD
ENDROOT
BRANCH   2  10
ATOM     10  C   UNL     1       0.708   9.770  19.311  0.00  0.00    +0.000 A 
ATOM     11  S   UNL     1       0.988  10.493  20.838  0.00  0.00    +0.000 S 
ATOM     12  C   UNL     1      -0.418  11.477  20.739  0.00  0.00    +0.000 A 
ATOM     13  C   UNL     1      -0.874  12.409  21.696  0.00  0.00    +0.000 A 
ATOM     14  C   UNL     1      -2.032  13.145  21.430  0.00  0.00    +0.000 A 
ATOM     15  C   UNL     1      -2.722  12.968  20.241  0.00  0.00    +0.000 A 
ATOM     16  C   UNL     1      -2.273  12.035  19.304  0.00  0.00    +0.000 A 
ATOM     17  C   UNL     1      -1.108  11.261  19.546  0.00  0.00    +0.000 A 
ATOM     18  C   UNL     1      -0.469  10.238  18.757  0.00  0.00    +0.000 A 
ATOM     19 CL   UNL     1      -1.170   9.712  17.272  0.00  0.00    +0.000 Cl
ENDBRANCH   2  10
BRANCH   6  20
ATOM     20  C   UNL     1       5.127   5.188  16.837  0.00  0.00    +0.000 A 
ATOM     21  C   UNL     1       4.828   4.331  15.797  0.00  0.00    +0.000 A 
ATOM     22  C   UNL     1       5.897   4.224  14.858  0.00  0.00    +0.000 A 
ATOM     23  C   UNL     1       6.977   4.997  15.223  0.00  0.00    +0.000 A 
ATOM     24  S   UNL     1       6.686   5.863  16.671  0.00  0.00    +0.000 S 
ENDBRANCH   6  20
TORSDOF 2
ENDMDL
MODEL 4
REMARK VINA RESULT:      -7.1      1.855      2.117
REMARK  Name = 
REMARK  2 active torsions:
REMARK  status: ('A' for Active; 'I' for Inactive)
REMARK    1  A    between atoms: C_2  and  C_14
REMARK    2  A    between atoms: C_6  and  C_7
REMARK                            x       y       z     vdW  Elec       q    Type
REMARK                         _______ _______ _______ _____ _____    ______ ____
ROOT
ATOM      1  O   UNL     1       2.370   9.347  17.291  0.00  0.00    +0.000 OA
ATOM      2  C   UNL     1       1.758   9.297  18.354  0.00  0.00    +0.000 C 
ATOM      3  N   UNL     1       1.818   8.220  19.218  0.00  0.00    +0.000 N 
ATOM      4  C   UNL     1       2.595   7.130  18.950  0.00  0.00    +0.000 A 
ATOM      5  N   UNL     1       3.485   6.968  18.008  0.00  0.00    +0.000 NA
ATOM      6  C   UNL     1       3.973   5.674  18.036  0.00  0.00    +0.000 A 
ATOM      7  C   UNL     1       3.448   4.881  19.039  0.00  0.00    +0.000 A 
ATOM      8  S   UNL     1       2.349   5.799  19.990  0.00  0.00    +0.000 S 
ATOM      9  H   UNL     1       1.231   8.190  20.037  0.00  0.00    +0.000 HD
ENDROOT
BRANCH   2  10
ATOM     10  C   UNL     1       0.887  10.397  18.781  0.00  0.00    +0.000 A 
ATOM     11  S   UNL     1      -0.678  10.114  19.417  0.00  0.00    +0.000 S 
ATOM     12  C   UNL     1      -0.964  11.783  19.716  0.00  0.00    +0.000 A 
ATOM     13  C   UNL     1      -2.122  12.360  20.279  0.00  0.00    +0.000 A 
ATOM     14  C   UNL     1      -2.165  13.743  20.474  0.00  0.00    +0.000 A 
ATOM     15  C   UNL     1      -1.085  14.539  20.126  0.00  0.00    +0.000 A 
ATOM     16  C   UNL     1       0.053  13.963  19.557  0.00  0.00    +0.000 A 
ATOM     17  C   UNL     1       0.127  12.563  19.333  0.00  0.00    +0.000 A 
ATOM     18  C   UNL     1       1.165  11.750  18.751  0.00  0.00    +0.000 A 
ATOM     19 CL   UNL     1       2.590  12.478  18.108  0.00  0.00    +0.000 Cl
ENDBRANCH   2  10
BRANCH   6  20
ATOM     20  C   UNL     1       4.981   5.220  17.023  0.00  0.00    +0.000 A 
ATOM     21  C   UNL     1       4.782   4.128  16.203  0.00  0.00    +0.000 A 
ATOM     22  C   UNL     1       5.889   3.892  15.335  0.00  0.00    +0.000 A 
ATOM     23  C   UNL     1       6.899   4.809  15.533  0.00  0.00    +0.000 A 
ATOM     24  S   UNL     1       6.494   5.958  16.736  0.00  0.00    +0.000 S 
ENDBRANCH   6  20
TORSDOF 2
ENDMDL
MODEL 5
REMARK VINA RESULT:      -7.0      1.384      1.616
REMARK  Name = 
REMARK  2 active torsions:
REMARK  status: ('A' for Active; 'I' for Inactive)
REMARK    1  A    between atoms: C_2  and  C_14
REMARK    2  A    between atoms: C_6  and  C_7
REMARK                            x       y       z     vdW  Elec       q    Type
REMARK                         _______ _______ _______ _____ _____    ______ ____
ROOT
ATOM      1  O   UNL     1       2.994   8.145  17.971  0.00  0.00    +0.000 OA
ATOM      2  C   UNL     1       2.386   7.617  18.899  0.00  0.00    +0.000 C 
ATOM      3  N   UNL     1       2.435   6.262  19.168  0.00  0.00    +0.000 N 
ATOM      4  C   UNL     1       3.194   5.410  18.418  0.00  0.00    +0.000 A 
ATOM      5  N   UNL     1       4.076   5.692  17.497  0.00  0.00    +0.000 NA
ATOM      6  C   UNL     1       4.546   4.526  16.919  0.00  0.00    +0.000 A 
ATOM      7  C   UNL     1       4.014   3.365  17.450  0.00  0.00    +0.000 A 
ATOM      8  S   UNL     1       2.934   3.753  18.730  0.00  0.00    +0.000 S 
ATOM      9  H   UNL     1       1.852   5.864  19.888  0.00  0.00    +0.000 HD
ENDROOT
BRANCH   2  10
ATOM     10  C   UNL     1       1.535   8.405  19.795  0.00  0.00    +0.000 A 
ATOM     11  S   UNL     1       1.170   7.883  21.385  0.00  0.00    +0.000 S 
ATOM     12  C   UNL     1       0.265   9.298  21.748  0.00  0.00    +0.000 A 
ATOM     13  C   UNL     1      -0.383   9.605  22.963  0.00  0.00    +0.000 A 
ATOM     14  C   UNL     1      -1.053  10.826  23.086  0.00  0.00    +0.000 A 
ATOM     15  C   UNL     1      -1.078  11.726  22.032  0.00  0.00    +0.000 A 
ATOM     16  C   UNL     1      -0.446  11.410  20.827  0.00  0.00    +0.000 A 
ATOM     17  C   UNL     1       0.234  10.174  20.663  0.00  0.00    +0.000 A 
ATOM     18  C   UNL     1       0.931   9.620  19.530  0.00  0.00    +0.000 A 
ATOM     19 CL   UNL     1       0.965  10.462  18.025  0.00  0.00    +0.000 Cl
ENDBRANCH   2  10
BRANCH   6  20
ATOM     20  C   UNL     1       5.541   4.580  15.799  0.00  0.00    +0.000 A 
ATOM     21  C   UNL     1       6.786   5.163  15.929  0.00  0.00    +0.000 A 
ATOM     22  C   UNL     1       7.543   5.099  14.722  0.00  0.00    +0.000 A 
ATOM     23  C   UNL     1       6.842   4.479  13.711  0.00  0.00    +0.000 A 
ATOM     24  S   UNL     1       5.297   3.955  14.230  0.00  0.00    +0.000 S 
ENDBRANCH   6  20
TORSDOF 2
ENDMDL
MODEL 6
REMARK VINA RESULT:      -6.7      1.801      2.101
REMARK  Name = 
REMARK  2 active torsions:
REMARK  status: ('A' for Active; 'I' for Inactive)
REMARK    1  A    between atoms: C_2  and  C_14
REMARK    2  A    between atoms: C_6  and  C_7
REMARK                            x       y       z     vdW  Elec       q    Type
REMARK                         _______ _______ _______ _____ _____    ______ ____
ROOT
ATOM      1  O   UNL     1       1.903   9.459  18.667  0.00  0.00    +0.000 OA
ATOM      2  C   UNL     1       1.439   9.237  19.782  0.00  0.00    +0.000 C 
ATOM      3  N   UNL     1       1.545   8.016  20.421  0.00  0.00    +0.000 N 
ATOM      4  C   UNL     1       2.204   6.964  19.851  0.00  0.00    +0.000 A 
ATOM      5  N   UNL     1       2.945   6.945  18.776  0.00  0.00    +0.000 NA
ATOM      6  C   UNL     1       3.345   5.650  18.500  0.00  0.00    +0.000 A 
ATOM      7  C   UNL     1       2.910   4.706  19.411  0.00  0.00    +0.000 A 
ATOM      8  S   UNL     1       2.014   5.474  20.661  0.00  0.00    +0.000 S 
ATOM      9  H   UNL     1       1.074   7.857  21.298  0.00  0.00    +0.000 HD
ENDROOT
BRANCH   2  10
ATOM     10  C   UNL     1       0.710  10.271  20.521  0.00  0.00    +0.000 A 
ATOM     11  S   UNL     1       0.888  11.936  20.159  0.00  0.00    +0.000 S 
ATOM     12  C   UNL     1      -0.273  12.416  21.331  0.00  0.00    +0.000 A 
ATOM     13  C   UNL     1      -0.694  13.731  21.623  0.00  0.00    +0.000 A 
ATOM     14  C   UNL     1      -1.677  13.929  22.597  0.00  0.00    +0.000 A 
ATOM     15  C   UNL     1      -2.237  12.851  23.264  0.00  0.00    +0.000 A 
ATOM     16  C   UNL     1      -1.807  11.553  22.979  0.00  0.00    +0.000 A 
ATOM     17  C   UNL     1      -0.802  11.315  22.005  0.00  0.00    +0.000 A 
ATOM     18  C   UNL     1      -0.187  10.091  21.558  0.00  0.00    +0.000 A 
ATOM     19 CL   UNL     1      -0.594   8.586  22.295  0.00  0.00    +0.000 Cl
ENDBRANCH   2  10
BRANCH   6  20
ATOM     20  C   UNL     1       4.173   5.354  17.286  0.00  0.00    +0.000 A 
ATOM     21  C   UNL     1       4.753   6.341  16.513  0.00  0.00    +0.000 A 
ATOM     22  C   UNL     1       5.479   5.807  15.408  0.00  0.00    +0.000 A 
ATOM     23  C   UNL     1       5.418   4.431  15.371  0.00  0.00    +0.000 A 
ATOM     24  S   UNL     1       4.515   3.795  16.679  0.00  0.00    +0.000 S 
ENDBRANCH   6  20
TORSDOF 2
ENDMDL
MODEL 7
REMARK VINA RESULT:      -6.7      2.689      9.136
REMARK  Name = 
REMARK  2 active torsions:
REMARK  status: ('A' for Active; 'I' for Inactive)
REMARK    1  A    between atoms: C_2  and  C_14
REMARK    2  A    between atoms: C_6  and  C_7
REMARK                            x       y       z     vdW  Elec       q    Type
REMARK                         _______ _______ _______ _____ _____    ______ ____
ROOT
ATOM      1  O   UNL     1       1.444   8.894  20.921  0.00  0.00    +0.000 OA
ATOM      2  C   UNL     1       1.419   8.720  19.705  0.00  0.00    +0.000 C 
ATOM      3  N   UNL     1       0.619   9.451  18.848  0.00  0.00    +0.000 N 
ATOM      4  C   UNL     1      -0.196  10.448  19.304  0.00  0.00    +0.000 A 
ATOM      5  N   UNL     1      -0.252  10.981  20.495  0.00  0.00    +0.000 NA
ATOM      6  C   UNL     1      -1.286  11.898  20.554  0.00  0.00    +0.000 A 
ATOM      7  C   UNL     1      -1.983  12.058  19.371  0.00  0.00    +0.000 A 
ATOM      8  S   UNL     1      -1.292  11.063  18.151  0.00  0.00    +0.000 S 
ATOM      9  H   UNL     1       0.569   9.213  17.869  0.00  0.00    +0.000 HD
ENDROOT
BRANCH   2  10
ATOM     10  C   UNL     1       2.244   7.689  19.068  0.00  0.00    +0.000 A 
ATOM     11  S   UNL     1       3.153   8.007  17.652  0.00  0.00    +0.000 S 
ATOM     12  C   UNL     1       3.834   6.429  17.617  0.00  0.00    +0.000 A 
ATOM     13  C   UNL     1       4.751   5.919  16.673  0.00  0.00    +0.000 A 
ATOM     14  C   UNL     1       5.221   4.611  16.822  0.00  0.00    +0.000 A 
ATOM     15  C   UNL     1       4.799   3.826  17.883  0.00  0.00    +0.000 A 
ATOM     16  C   UNL     1       3.882   4.332  18.806  0.00  0.00    +0.000 A 
ATOM     17  C   UNL     1       3.374   5.652  18.680  0.00  0.00    +0.000 A 
ATOM     18  C   UNL     1       2.420   6.380  19.478  0.00  0.00    +0.000 A 
ATOM     19 CL   UNL     1       1.625   5.618  20.805  0.00  0.00    +0.000 Cl
ENDBRANCH   2  10
BRANCH   6  20
ATOM     20  C   UNL     1      -1.589  12.620  21.833  0.00  0.00    +0.000 A 
ATOM     21  C   UNL     1      -2.673  12.313  22.629  0.00  0.00    +0.000 A 
ATOM     22  C   UNL     1      -2.752  13.147  23.783  0.00  0.00    +0.000 A 
ATOM     23  C   UNL     1      -1.729  14.069  23.819  0.00  0.00    +0.000 A 
ATOM     24  S   UNL     1      -0.671  13.903  22.484  0.00  0.00    +0.000 S 
ENDBRANCH   6  20
TORSDOF 2
ENDMDL
MODEL 8
REMARK VINA RESULT:      -6.6      1.713      2.130
REMARK  Name = 
REMARK  2 active torsions:
REMARK  status: ('A' for Active; 'I' for Inactive)
REMARK    1  A    between atoms: C_2  and  C_14
REMARK    2  A    between atoms: C_6  and  C_7
REMARK                            x       y       z     vdW  Elec       q    Type
REMARK                         _______ _______ _______ _____ _____    ______ ____
ROOT
ATOM      1  O   UNL     1       1.948   9.099  17.403  0.00  0.00    +0.000 OA
ATOM      2  C   UNL     1       1.370   8.944  18.476  0.00  0.00    +0.000 C 
ATOM      3  N   UNL     1       1.632   7.896  19.337  0.00  0.00    +0.000 N 
ATOM      4  C   UNL     1       2.584   6.958  19.055  0.00  0.00    +0.000 A 
ATOM      5  N   UNL     1       3.474   6.954  18.099  0.00  0.00    +0.000 NA
ATOM      6  C   UNL     1       4.183   5.766  18.118  0.00  0.00    +0.000 A 
ATOM      7  C   UNL     1       3.821   4.895  19.128  0.00  0.00    +0.000 A 
ATOM      8  S   UNL     1       2.592   5.607  20.098  0.00  0.00    +0.000 S 
ATOM      9  H   UNL     1       1.072   7.764  20.165  0.00  0.00    +0.000 HD
ENDROOT
BRANCH   2  10
ATOM     10  C   UNL     1       0.327   9.874  18.918  0.00  0.00    +0.000 A 
ATOM     11  S   UNL     1      -0.984  10.309  17.904  0.00  0.00    +0.000 S 
ATOM     12  C   UNL     1      -1.721  11.285  19.111  0.00  0.00    +0.000 A 
ATOM     13  C   UNL     1      -2.925  12.013  18.999  0.00  0.00    +0.000 A 
ATOM     14  C   UNL     1      -3.389  12.733  20.104  0.00  0.00    +0.000 A 
ATOM     15  C   UNL     1      -2.680  12.731  21.295  0.00  0.00    +0.000 A 
ATOM     16  C   UNL     1      -1.482  12.021  21.395  0.00  0.00    +0.000 A 
ATOM     17  C   UNL     1      -0.975  11.287  20.290  0.00  0.00    +0.000 A 
ATOM     18  C   UNL     1       0.227  10.507  20.143  0.00  0.00    +0.000 A 
ATOM     19 CL   UNL     1       1.377  10.418  21.425  0.00  0.00    +0.000 Cl
ENDBRANCH   2  10
BRANCH   6  20
ATOM     20  C   UNL     1       5.238   5.495  17.089  0.00  0.00    +0.000 A 
ATOM     21  C   UNL     1       5.047   5.720  15.740  0.00  0.00    +0.000 A 
ATOM     22  C   UNL     1       6.193   5.373  14.965  0.00  0.00    +0.000 A 
ATOM     23  C   UNL     1       7.214   4.886  15.750  0.00  0.00    +0.000 A 
ATOM     24  S   UNL     1       6.797   4.877  17.410  0.00  0.00    +0.000 S 
ENDBRANCH   6  20
TORSDOF 2
ENDMDL
MODEL 9
REMARK VINA RESULT:      -6.6      1.682      1.978
REMARK  Name = 
REMARK  2 active torsions:
REMARK  status: ('A' for Active; 'I' for Inactive)
REMARK    1  A    between atoms: C_2  and  C_14
REMARK    2  A    between atoms: C_6  and  C_7
REMARK                            x       y       z     vdW  Elec       q    Type
REMARK                         _______ _______ _______ _____ _____    ______ ____
ROOT
ATOM      1  O   UNL     1       2.171   9.291  17.834  0.00  0.00    +0.000 OA
ATOM      2  C   UNL     1       1.672   9.143  18.946  0.00  0.00    +0.000 C 
ATOM      3  N   UNL     1       1.790   7.981  19.685  0.00  0.00    +0.000 N 
ATOM      4  C   UNL     1       2.502   6.910  19.225  0.00  0.00    +0.000 A 
ATOM      5  N   UNL     1       3.284   6.830  18.182  0.00  0.00    +0.000 NA
ATOM      6  C   UNL     1       3.734   5.531  18.026  0.00  0.00    +0.000 A 
ATOM      7  C   UNL     1       3.293   4.649  18.994  0.00  0.00    +0.000 A 
ATOM      8  S   UNL     1       2.327   5.483  20.146  0.00  0.00    +0.000 S 
ATOM      9  H   UNL     1       1.291   7.876  20.555  0.00  0.00    +0.000 HD
ENDROOT
BRANCH   2  10
ATOM     10  C   UNL     1       0.884  10.208  19.573  0.00  0.00    +0.000 A 
ATOM     11  S   UNL     1       0.902  11.814  18.978  0.00  0.00    +0.000 S 
ATOM     12  C   UNL     1      -0.251  12.358  20.130  0.00  0.00    +0.000 A 
ATOM     13  C   UNL     1      -0.773  13.663  20.261  0.00  0.00    +0.000 A 
ATOM     14  C   UNL     1      -1.732  13.915  21.247  0.00  0.00    +0.000 A 
ATOM     15  C   UNL     1      -2.170  12.898  22.082  0.00  0.00    +0.000 A 
ATOM     16  C   UNL     1      -1.640  11.612  21.955  0.00  0.00    +0.000 A 
ATOM     17  C   UNL     1      -0.656  11.323  20.974  0.00  0.00    +0.000 A 
ATOM     18  C   UNL     1       0.047  10.102  20.667  0.00  0.00    +0.000 A 
ATOM     19 CL   UNL     1      -0.199   8.687  21.622  0.00  0.00    +0.000 Cl
ENDBRANCH   2  10
BRANCH   6  20
ATOM     20  C   UNL     1       4.616   5.167  16.871  0.00  0.00    +0.000 A 
ATOM     21  C   UNL     1       4.955   3.864  16.567  0.00  0.00    +0.000 A 
ATOM     22  C   UNL     1       5.814   3.778  15.431  0.00  0.00    +0.000 A 
ATOM     23  C   UNL     1       6.108   5.021  14.916  0.00  0.00    +0.000 A 
ATOM     24  S   UNL     1       5.327   6.274  15.783  0.00  0.00    +0.000 S 
ENDBRANCH   6  20
TORSDOF 2
ENDMDL
