MODEL 1
REMARK VINA RESULT:      -6.3      0.000      0.000
REMARK  Name = 
REMARK  5 active torsions:
REMARK  status: ('A' for Active; 'I' for Inactive)
REMARK    1  A    between atoms: C_1  and  C_2
REMARK    2  A    between atoms: C_2  and  C_3
REMARK    3  A    between atoms: C_2  and  C_4
REMARK    4  A    between atoms: C_4  and  N_5
REMARK    5  A    between atoms: N_8  and  C_9
REMARK                            x       y       z     vdW  Elec       q    Type
REMARK                         _______ _______ _______ _____ _____    ______ ____
ROOT
ATOM      1  N   UNL     1       4.004   5.006  18.048  0.00  0.00    +0.000 N 
ATOM      2  C   UNL     1       3.030   5.897  18.411  0.00  0.00    +0.000 C 
ATOM      3  O   UNL     1       3.098   7.101  18.173  0.00  0.00    +0.000 OA
ATOM      4  N   UNL     1       2.065   5.339  19.223  0.00  0.00    +0.000 N 
ATOM      5  C   UNL     1       1.886   5.994  20.498  0.00  0.00    +0.000 C 
ATOM      6  C   UNL     1       1.598   4.050  19.043  0.00  0.00    +0.000 C 
ATOM      7  O   UNL     1       0.794   3.525  19.820  0.00  0.00    +0.000 OA
ATOM      8  C   UNL     1       2.131   3.341  17.787  0.00  0.00    +0.000 C 
ATOM      9  N   UNL     1       2.187   1.904  18.004  0.00  0.00    +0.000 N 
ATOM     10  C   UNL     1       3.451   1.624  18.426  0.00  0.00    +0.000 C 
ATOM     11  N   UNL     1       4.339   2.579  18.415  0.00  0.00    +0.000 NA
ATOM     12  C   UNL     1       3.636   3.663  17.665  0.00  0.00    +0.000 C 
ATOM     13  H   UNL     1       1.763   1.285  17.322  0.00  0.00    +0.000 HD
ENDROOT
BRANCH   1  14
ATOM     14  C   UNL     1       5.355   5.345  18.474  0.00  0.00    +0.000 C 
BRANCH  14  16
ATOM     15  C   UNL     1       6.955   7.016  17.464  0.00  0.00    +0.000 C 
ATOM     16  C   UNL     1       6.349   5.616  17.351  0.00  0.00    +0.000 C 
ATOM     17  C   UNL     1       7.461   4.565  17.414  0.00  0.00    +0.000 C 
ENDBRANCH  14  16
ENDBRANCH   1  14
TORSDOF 2
ENDMDL
MODEL 2
REMARK VINA RESULT:      -6.2      1.415      1.710
REMARK  Name = 
REMARK  5 active torsions:
REMARK  status: ('A' for Active; 'I' for Inactive)
REMARK    1  A    between atoms: C_1  and  C_2
REMARK    2  A    between atoms: C_2  and  C_3
REMARK    3  A    between atoms: C_2  and  C_4
REMARK    4  A    between atoms: C_4  and  N_5
REMARK    5  A    between atoms: N_8  and  C_9
REMARK                            x       y       z     vdW  Elec       q    Type
REMARK                         _______ _______ _______ _____ _____    ______ ____
ROOT
ATOM      1  N   UNL     1       5.150   4.924  18.208  0.00  0.00    +0.000 N 
ATOM      2  C   UNL     1       4.348   5.824  17.558  0.00  0.00    +0.000 C 
ATOM      3  O   UNL     1       4.785   6.797  16.950  0.00  0.00    +0.000 OA
ATOM      4  N   UNL     1       3.006   5.628  17.810  0.00  0.00    +0.000 N 
ATOM      5  C   UNL     1       2.315   6.770  18.364  0.00  0.00    +0.000 C 
ATOM      6  C   UNL     1       2.448   4.368  17.925  0.00  0.00    +0.000 C 
ATOM      7  O   UNL     1       1.264   4.196  18.231  0.00  0.00    +0.000 OA
ATOM      8  C   UNL     1       3.407   3.207  17.609  0.00  0.00    +0.000 C 
ATOM      9  N   UNL     1       3.032   2.023  18.366  0.00  0.00    +0.000 N 
ATOM     10  C   UNL     1       3.781   2.038  19.503  0.00  0.00    +0.000 C 
ATOM     11  N   UNL     1       4.715   2.939  19.625  0.00  0.00    +0.000 NA
ATOM     12  C   UNL     1       4.771   3.532  18.254  0.00  0.00    +0.000 C 
ATOM     13  H   UNL     1       2.919   1.141  17.879  0.00  0.00    +0.000 HD
ENDROOT
BRANCH   1  14
ATOM     14  C   UNL     1       6.099   5.498  19.153  0.00  0.00    +0.000 C 
BRANCH  14  16
ATOM     15  C   UNL     1       7.773   4.592  17.494  0.00  0.00    +0.000 C 
ATOM     16  C   UNL     1       7.553   5.514  18.695  0.00  0.00    +0.000 C 
ATOM     17  C   UNL     1       7.935   6.950  18.321  0.00  0.00    +0.000 C 
ENDBRANCH  14  16
ENDBRANCH   1  14
TORSDOF 2
ENDMDL
MODEL 3
REMARK VINA RESULT:      -6.2      1.895      3.431
REMARK  Name = 
REMARK  5 active torsions:
REMARK  status: ('A' for Active; 'I' for Inactive)
REMARK    1  A    between atoms: C_1  and  C_2
REMARK    2  A    between atoms: C_2  and  C_3
REMARK    3  A    between atoms: C_2  and  C_4
REMARK    4  A    between atoms: C_4  and  N_5
REMARK    5  A    between atoms: N_8  and  C_9
REMARK                            x       y       z     vdW  Elec       q    Type
REMARK                         _______ _______ _______ _____ _____    ______ ____
ROOT
ATOM      1  N   UNL     1       3.803   4.161  18.169  0.00  0.00    +0.000 N 
ATOM      2  C   UNL     1       3.324   2.959  18.617  0.00  0.00    +0.000 C 
ATOM      3  O   UNL     1       3.861   1.884  18.361  0.00  0.00    +0.000 OA
ATOM      4  N   UNL     1       2.090   3.063  19.223  0.00  0.00    +0.000 N 
ATOM      5  C   UNL     1       1.051   2.244  18.641  0.00  0.00    +0.000 C 
ATOM      6  C   UNL     1       1.746   4.133  20.029  0.00  0.00    +0.000 C 
ATOM      7  O   UNL     1       0.614   4.265  20.504  0.00  0.00    +0.000 OA
ATOM      8  C   UNL     1       2.892   5.120  20.313  0.00  0.00    +0.000 C 
ATOM      9  N   UNL     1       2.363   6.457  20.532  0.00  0.00    +0.000 N 
ATOM     10  C   UNL     1       2.411   7.094  19.328  0.00  0.00    +0.000 C 
ATOM     11  N   UNL     1       3.003   6.500  18.330  0.00  0.00    +0.000 NA
ATOM     12  C   UNL     1       3.665   5.337  18.995  0.00  0.00    +0.000 C 
ATOM     13  H   UNL     1       2.648   6.972  21.357  0.00  0.00    +0.000 HD
ENDROOT
BRANCH   1  14
ATOM     14  C   UNL     1       4.035   4.248  16.733  0.00  0.00    +0.000 C 
BRANCH  14  16
ATOM     15  C   UNL     1       6.072   3.755  15.325  0.00  0.00    +0.000 C 
ATOM     16  C   UNL     1       5.425   4.720  16.321  0.00  0.00    +0.000 C 
ATOM     17  C   UNL     1       5.303   6.110  15.688  0.00  0.00    +0.000 C 
ENDBRANCH  14  16
ENDBRANCH   1  14
TORSDOF 2
ENDMDL
MODEL 4
REMARK VINA RESULT:      -6.2      2.846      4.031
REMARK  Name = 
REMARK  5 active torsions:
REMARK  status: ('A' for Active; 'I' for Inactive)
REMARK    1  A    between atoms: C_1  and  C_2
REMARK    2  A    between atoms: C_2  and  C_3
REMARK    3  A    between atoms: C_2  and  C_4
REMARK    4  A    between atoms: C_4  and  N_5
REMARK    5  A    between atoms: N_8  and  C_9
REMARK                            x       y       z     vdW  Elec       q    Type
REMARK                         _______ _______ _______ _____ _____    ______ ____
ROOT
ATOM      1  N   UNL     1       6.208   5.508  16.063  0.00  0.00    +0.000 N 
ATOM      2  C   UNL     1       6.895   6.303  16.939  0.00  0.00    +0.000 C 
ATOM      3  O   UNL     1       7.767   7.094  16.587  0.00  0.00    +0.000 OA
ATOM      4  N   UNL     1       6.639   5.997  18.259  0.00  0.00    +0.000 N 
ATOM      5  C   UNL     1       7.803   5.659  19.046  0.00  0.00    +0.000 C 
ATOM      6  C   UNL     1       5.382   5.634  18.707  0.00  0.00    +0.000 C 
ATOM      7  O   UNL     1       5.172   5.282  19.872  0.00  0.00    +0.000 OA
ATOM      8  C   UNL     1       4.267   5.739  17.652  0.00  0.00    +0.000 C 
ATOM      9  N   UNL     1       3.223   4.763  17.924  0.00  0.00    +0.000 N 
ATOM     10  C   UNL     1       3.518   3.662  17.179  0.00  0.00    +0.000 C 
ATOM     11  N   UNL     1       4.501   3.730  16.326  0.00  0.00    +0.000 NA
ATOM     12  C   UNL     1       4.823   5.190  16.321  0.00  0.00    +0.000 C 
ATOM     13  H   UNL     1       2.257   5.071  17.961  0.00  0.00    +0.000 HD
ENDROOT
BRANCH   1  14
ATOM     14  C   UNL     1       7.030   4.706  15.167  0.00  0.00    +0.000 C 
BRANCH  14  16
ATOM     15  C   UNL     1       8.045   5.305  12.934  0.00  0.00    +0.000 C 
ATOM     16  C   UNL     1       6.769   4.908  13.678  0.00  0.00    +0.000 C 
ATOM     17  C   UNL     1       6.215   3.605  13.095  0.00  0.00    +0.000 C 
ENDBRANCH  14  16
ENDBRANCH   1  14
TORSDOF 2
ENDMDL
MODEL 5
REMARK VINA RESULT:      -6.1      2.569      5.156
REMARK  Name = 
REMARK  5 active torsions:
REMARK  status: ('A' for Active; 'I' for Inactive)
REMARK    1  A    between atoms: C_1  and  C_2
REMARK    2  A    between atoms: C_2  and  C_3
REMARK    3  A    between atoms: C_2  and  C_4
REMARK    4  A    between atoms: C_4  and  N_5
REMARK    5  A    between atoms: N_8  and  C_9
REMARK                            x       y       z     vdW  Elec       q    Type
REMARK                         _______ _______ _______ _____ _____    ______ ____
ROOT
ATOM      1  N   UNL     1       4.878   4.507  18.429  0.00  0.00    +0.000 N 
ATOM      2  C   UNL     1       4.526   4.442  17.108  0.00  0.00    +0.000 C 
ATOM      3  O   UNL     1       3.410   4.098  16.726  0.00  0.00    +0.000 OA
ATOM      4  N   UNL     1       5.595   4.622  16.255  0.00  0.00    +0.000 N 
ATOM      5  C   UNL     1       5.823   3.542  15.324  0.00  0.00    +0.000 C 
ATOM      6  C   UNL     1       6.608   5.527  16.516  0.00  0.00    +0.000 C 
ATOM      7  O   UNL     1       7.604   5.628  15.794  0.00  0.00    +0.000 OA
ATOM      8  C   UNL     1       6.377   6.415  17.750  0.00  0.00    +0.000 C 
ATOM      9  N   UNL     1       7.650   6.796  18.343  0.00  0.00    +0.000 N 
ATOM     10  C   UNL     1       7.908   5.886  19.323  0.00  0.00    +0.000 C 
ATOM     11  N   UNL     1       6.988   5.014  19.625  0.00  0.00    +0.000 NA
ATOM     12  C   UNL     1       5.802   5.524  18.872  0.00  0.00    +0.000 C 
ATOM     13  H   UNL     1       7.829   7.774  18.539  0.00  0.00    +0.000 HD
ENDROOT
BRANCH   1  14
ATOM     14  C   UNL     1       4.627   3.300  19.205  0.00  0.00    +0.000 C 
BRANCH  14  16
ATOM     15  C   UNL     1       2.801   4.750  20.174  0.00  0.00    +0.000 C 
ATOM     16  C   UNL     1       3.396   3.342  20.104  0.00  0.00    +0.000 C 
ATOM     17  C   UNL     1       2.352   2.366  19.553  0.00  0.00    +0.000 C 
ENDBRANCH  14  16
ENDBRANCH   1  14
TORSDOF 2
ENDMDL
MODEL 6
REMARK VINA RESULT:      -6.1      1.999      4.564
REMARK  Name = 
REMARK  5 active torsions:
REMARK  status: ('A' for Active; 'I' for Inactive)
REMARK    1  A    between atoms: C_1  and  C_2
REMARK    2  A    between atoms: C_2  and  C_3
REMARK    3  A    between atoms: C_2  and  C_4
REMARK    4  A    between atoms: C_4  and  N_5
REMARK    5  A    between atoms: N_8  and  C_9
REMARK                            x       y       z     vdW  Elec       q    Type
REMARK                         _______ _______ _______ _____ _____    ______ ____
ROOT
ATOM      1  N   UNL     1       4.125   4.157  17.639  0.00  0.00    +0.000 N 
ATOM      2  C   UNL     1       3.926   5.264  18.419  0.00  0.00    +0.000 C 
ATOM      3  O   UNL     1       3.157   5.282  19.377  0.00  0.00    +0.000 OA
ATOM      4  N   UNL     1       4.530   6.396  17.913  0.00  0.00    +0.000 N 
ATOM      5  C   UNL     1       3.641   7.509  17.671  0.00  0.00    +0.000 C 
ATOM      6  C   UNL     1       5.769   6.365  17.300  0.00  0.00    +0.000 C 
ATOM      7  O   UNL     1       6.272   7.363  16.775  0.00  0.00    +0.000 OA
ATOM      8  C   UNL     1       6.481   5.002  17.355  0.00  0.00    +0.000 C 
ATOM      9  N   UNL     1       7.348   4.839  16.198  0.00  0.00    +0.000 N 
ATOM     10  C   UNL     1       6.621   4.170  15.261  0.00  0.00    +0.000 C 
ATOM     11  N   UNL     1       5.447   3.709  15.592  0.00  0.00    +0.000 NA
ATOM     12  C   UNL     1       5.430   3.908  17.073  0.00  0.00    +0.000 C 
ATOM     13  H   UNL     1       8.313   4.564  16.340  0.00  0.00    +0.000 HD
ENDROOT
BRANCH   1  14
ATOM     14  C   UNL     1       2.918   3.546  17.098  0.00  0.00    +0.000 C 
BRANCH  14  16
ATOM     15  C   UNL     1       3.583   1.689  18.674  0.00  0.00    +0.000 C 
ATOM     16  C   UNL     1       2.484   2.247  17.767  0.00  0.00    +0.000 C 
ATOM     17  C   UNL     1       1.222   2.516  18.591  0.00  0.00    +0.000 C 
ENDBRANCH  14  16
ENDBRANCH   1  14
TORSDOF 2
ENDMDL
MODEL 7
REMARK VINA RESULT:      -6.1      1.845      3.284
REMARK  Name = 
REMARK  5 active torsions:
REMARK  status: ('A' for Active; 'I' for Inactive)
REMARK    1  A    between atoms: C_1  and  C_2
REMARK    2  A    between atoms: C_2  and  C_3
REMARK    3  A    between atoms: C_2  and  C_4
REMARK    4  A    between atoms: C_4  and  N_5
REMARK    5  A    between atoms: N_8  and  C_9
REMARK                            x       y       z     vdW  Elec       q    Type
REMARK                         _______ _______ _______ _____ _____    ______ ____
ROOT
ATOM      1  N   UNL     1       4.541   4.366  18.632  0.00  0.00    +0.000 N 
ATOM      2  C   UNL     1       4.200   3.313  19.437  0.00  0.00    +0.000 C 
ATOM      3  O   UNL     1       4.944   2.358  19.646  0.00  0.00    +0.000 OA
ATOM      4  N   UNL     1       2.881   3.347  19.839  0.00  0.00    +0.000 N 
ATOM      5  C   UNL     1       2.107   2.176  19.496  0.00  0.00    +0.000 C 
ATOM      6  C   UNL     1       2.232   4.525  20.160  0.00  0.00    +0.000 C 
ATOM      7  O   UNL     1       1.030   4.562  20.440  0.00  0.00    +0.000 OA
ATOM      8  C   UNL     1       3.132   5.773  20.176  0.00  0.00    +0.000 C 
ATOM      9  N   UNL     1       2.359   6.957  19.838  0.00  0.00    +0.000 N 
ATOM     10  C   UNL     1       2.503   7.144  18.496  0.00  0.00    +0.000 C 
ATOM     11  N   UNL     1       3.347   6.391  17.848  0.00  0.00    +0.000 NA
ATOM     12  C   UNL     1       4.071   5.694  18.953  0.00  0.00    +0.000 C 
ATOM     13  H   UNL     1       2.411   7.770  20.442  0.00  0.00    +0.000 HD
ENDROOT
BRANCH   1  14
ATOM     14  C   UNL     1       4.995   4.011  17.294  0.00  0.00    +0.000 C 
BRANCH  14  16
ATOM     15  C   UNL     1       7.421   4.593  17.679  0.00  0.00    +0.000 C 
ATOM     16  C   UNL     1       6.199   4.792  16.780  0.00  0.00    +0.000 C 
ATOM     17  C   UNL     1       6.521   4.320  15.359  0.00  0.00    +0.000 C 
ENDBRANCH  14  16
ENDBRANCH   1  14
TORSDOF 2
ENDMDL
MODEL 8
REMARK VINA RESULT:      -6.0      1.719      2.265
REMARK  Name = 
REMARK  5 active torsions:
REMARK  status: ('A' for Active; 'I' for Inactive)
REMARK    1  A    between atoms: C_1  and  C_2
REMARK    2  A    between atoms: C_2  and  C_3
REMARK    3  A    between atoms: C_2  and  C_4
REMARK    4  A    between atoms: C_4  and  N_5
REMARK    5  A    between atoms: N_8  and  C_9
REMARK                            x       y       z     vdW  Elec       q    Type
REMARK                         _______ _______ _______ _____ _____    ______ ____
ROOT
ATOM      1  N   UNL     1       5.466   4.566  17.234  0.00  0.00    +0.000 N 
ATOM      2  C   UNL     1       4.733   5.546  16.621  0.00  0.00    +0.000 C 
ATOM      3  O   UNL     1       5.088   6.102  15.584  0.00  0.00    +0.000 OA
ATOM      4  N   UNL     1       3.660   5.968  17.377  0.00  0.00    +0.000 N 
ATOM      5  C   UNL     1       3.638   7.383  17.672  0.00  0.00    +0.000 C 
ATOM      6  C   UNL     1       2.899   5.099  18.137  0.00  0.00    +0.000 C 
ATOM      7  O   UNL     1       1.990   5.490  18.875  0.00  0.00    +0.000 OA
ATOM      8  C   UNL     1       3.251   3.612  17.960  0.00  0.00    +0.000 C 
ATOM      9  N   UNL     1       2.960   2.877  19.181  0.00  0.00    +0.000 N 
ATOM     10  C   UNL     1       4.119   2.837  19.895  0.00  0.00    +0.000 C 
ATOM     11  N   UNL     1       5.210   3.288  19.341  0.00  0.00    +0.000 NA
ATOM     12  C   UNL     1       4.789   3.492  17.922  0.00  0.00    +0.000 C 
ATOM     13  H   UNL     1       2.402   2.032  19.128  0.00  0.00    +0.000 HD
ENDROOT
BRANCH   1  14
ATOM     14  C   UNL     1       6.858   4.901  17.506  0.00  0.00    +0.000 C 
BRANCH  14  16
ATOM     15  C   UNL     1       8.017   5.680  19.609  0.00  0.00    +0.000 C 
ATOM     16  C   UNL     1       7.078   6.066  18.465  0.00  0.00    +0.000 C 
ATOM     17  C   UNL     1       7.673   7.241  17.682  0.00  0.00    +0.000 C 
ENDBRANCH  14  16
ENDBRANCH   1  14
TORSDOF 2
ENDMDL
MODEL 9
REMARK VINA RESULT:      -6.0      2.838      4.828
REMARK  Name = 
REMARK  5 active torsions:
REMARK  status: ('A' for Active; 'I' for Inactive)
REMARK    1  A    between atoms: C_1  and  C_2
REMARK    2  A    between atoms: C_2  and  C_3
REMARK    3  A    between atoms: C_2  and  C_4
REMARK    4  A    between atoms: C_4  and  N_5
REMARK    5  A    between atoms: N_8  and  C_9
REMARK                            x       y       z     vdW  Elec       q    Type
REMARK                         _______ _______ _______ _____ _____    ______ ____
ROOT
ATOM      1  N   UNL     1       4.669   5.818  17.705  0.00  0.00    +0.000 N 
ATOM      2  C   UNL     1       5.337   5.321  18.791  0.00  0.00    +0.000 C 
ATOM      3  O   UNL     1       4.867   5.317  19.926  0.00  0.00    +0.000 OA
ATOM      4  N   UNL     1       6.649   4.997  18.514  0.00  0.00    +0.000 N 
ATOM      5  C   UNL     1       7.631   5.662  19.339  0.00  0.00    +0.000 C 
ATOM      6  C   UNL     1       7.036   4.427  17.315  0.00  0.00    +0.000 C 
ATOM      7  O   UNL     1       8.220   4.213  17.037  0.00  0.00    +0.000 OA
ATOM      8  C   UNL     1       5.877   4.051  16.376  0.00  0.00    +0.000 C 
ATOM      9  N   UNL     1       6.308   4.125  14.989  0.00  0.00    +0.000 N 
ATOM     10  C   UNL     1       5.970   5.368  14.544  0.00  0.00    +0.000 C 
ATOM     11  N   UNL     1       5.257   6.137  15.319  0.00  0.00    +0.000 NA
ATOM     12  C   UNL     1       4.849   5.202  16.411  0.00  0.00    +0.000 C 
ATOM     13  H   UNL     1       6.137   3.336  14.376  0.00  0.00    +0.000 HD
ENDROOT
BRANCH   1  14
ATOM     14  C   UNL     1       4.160   7.176  17.850  0.00  0.00    +0.000 C 
BRANCH  14  16
ATOM     15  C   UNL     1       2.297   7.079  19.551  0.00  0.00    +0.000 C 
ATOM     16  C   UNL     1       2.657   7.292  18.079  0.00  0.00    +0.000 C 
ATOM     17  C   UNL     1       2.198   8.683  17.630  0.00  0.00    +0.000 C 
ENDBRANCH  14  16
ENDBRANCH   1  14
TORSDOF 2
ENDMDL
