MODEL 1
REMARK VINA RESULT:      -9.0      0.000      0.000
REMARK  Name = 
REMARK  8 active torsions:
REMARK  status: ('A' for Active; 'I' for Inactive)
REMARK    1  A    between atoms: C_1  and  C_2
REMARK    2  A    between atoms: C_2  and  N_3
REMARK    3  A    between atoms: C_2  and  C_25
REMARK    4  A    between atoms: C_4  and  C_6
REMARK    5  A    between atoms: C_6  and  C_7
REMARK    6  A    between atoms: C_7  and  N_8
REMARK    7  A    between atoms: C_11  and  C_12
REMARK    8  A    between atoms: C_14  and  C_15
REMARK                            x       y       z     vdW  Elec       q    Type
REMARK                         _______ _______ _______ _____ _____    ______ ____
ROOT
ATOM      1  N   UNL     1       2.413   5.948  18.556  0.00  0.00    +0.000 NA
ATOM      2  C   UNL     1       2.495   4.779  17.662  0.00  0.00    +0.000 C 
ATOM      3  C   UNL     1       3.156   3.582  18.348  0.00  0.00    +0.000 C 
ATOM      4  C   UNL     1       4.545   3.931  18.884  0.00  0.00    +0.000 C 
ATOM      5  C   UNL     1       4.429   5.157  19.800  0.00  0.00    +0.000 C 
ATOM      6  C   UNL     1       3.724   6.330  19.109  0.00  0.00    +0.000 C 
ENDROOT
BRANCH   4   7
ATOM      7  C   UNL     1       5.512   4.188  17.780  0.00  0.00    +0.000 A 
ATOM      8  N   UNL     1       5.301   4.167  16.489  0.00  0.00    +0.000 NA
ATOM      9  C   UNL     1       6.552   4.391  15.963  0.00  0.00    +0.000 A 
ATOM     10  N   UNL     1       7.504   4.562  16.901  0.00  0.00    +0.000 NA
ATOM     11  O   UNL     1       6.810   4.436  18.108  0.00  0.00    +0.000 OA
BRANCH   9  12
ATOM     12  C   UNL     1       6.782   4.440  14.519  0.00  0.00    +0.000 A 
ATOM     13  C   UNL     1       6.106   3.590  13.650  0.00  0.00    +0.000 A 
ATOM     14  C   UNL     1       6.389   3.659  12.287  0.00  0.00    +0.000 A 
ATOM     15  C   UNL     1       7.333   4.573  11.832  0.00  0.00    +0.000 A 
ATOM     16  C   UNL     1       7.953   5.391  12.757  0.00  0.00    +0.000 A 
ATOM     17  N   UNL     1       7.698   5.349  14.081  0.00  0.00    +0.000 NA
ENDBRANCH   9  12
ENDBRANCH   4   7
BRANCH   1  18
ATOM     18  C   UNL     1       1.808   7.120  17.868  0.00  0.00    +0.000 C 
BRANCH  18  19
ATOM     19  C   UNL     1       2.699   8.370  17.832  0.00  0.00    +0.000 C 
BRANCH  19  21
ATOM     20  N   UNL     1       0.779   9.480  18.825  0.00  0.00    +0.000 N 
ATOM     21  C   UNL     1       1.970   9.660  18.165  0.00  0.00    +0.000 C 
ATOM     22  O   UNL     1       2.380  10.757  17.800  0.00  0.00    +0.000 OA
ATOM     23  H   UNL     1       0.575   8.533  19.140  0.00  0.00    +0.000 HD
BRANCH  20  25
ATOM     24  C   UNL     1      -0.401  10.372  20.785  0.00  0.00    +0.000 C 
ATOM     25  C   UNL     1      -0.071  10.549  19.303  0.00  0.00    +0.000 C 
BRANCH  25  26
ATOM     26  C   UNL     1      -1.328  10.588  18.447  0.00  0.00    +0.000 A 
ATOM     27  C   UNL     1      -2.369  11.469  18.775  0.00  0.00    +0.000 A 
ATOM     28  C   UNL     1      -3.498  11.565  17.960  0.00  0.00    +0.000 A 
ATOM     29  C   UNL     1      -3.585  10.789  16.811  0.00  0.00    +0.000 A 
ATOM     30  F   UNL     1      -4.656  10.903  16.018  0.00  0.00    +0.000 F 
ATOM     31  C   UNL     1      -2.572   9.905  16.466  0.00  0.00    +0.000 A 
ATOM     32  C   UNL     1      -1.450   9.799  17.288  0.00  0.00    +0.000 A 
ENDBRANCH  25  26
ENDBRANCH  20  25
ENDBRANCH  19  21
ENDBRANCH  18  19
ENDBRANCH   1  18
TORSDOF 7
ENDMDL
MODEL 2
REMARK VINA RESULT:      -8.4      1.318      1.709
REMARK  Name = 
REMARK  8 active torsions:
REMARK  status: ('A' for Active; 'I' for Inactive)
REMARK    1  A    between atoms: C_1  and  C_2
REMARK    2  A    between atoms: C_2  and  N_3
REMARK    3  A    between atoms: C_2  and  C_25
REMARK    4  A    between atoms: C_4  and  C_6
REMARK    5  A    between atoms: C_6  and  C_7
REMARK    6  A    between atoms: C_7  and  N_8
REMARK    7  A    between atoms: C_11  and  C_12
REMARK    8  A    between atoms: C_14  and  C_15
REMARK                            x       y       z     vdW  Elec       q    Type
REMARK                         _______ _______ _______ _____ _____    ______ ____
ROOT
ATOM      1  N   UNL     1       2.345   5.837  19.426  0.00  0.00    +0.000 NA
ATOM      2  C   UNL     1       2.080   5.497  18.016  0.00  0.00    +0.000 C 
ATOM      3  C   UNL     1       2.117   3.987  17.777  0.00  0.00    +0.000 C 
ATOM      4  C   UNL     1       3.444   3.373  18.224  0.00  0.00    +0.000 C 
ATOM      5  C   UNL     1       3.697   3.754  19.689  0.00  0.00    +0.000 C 
ATOM      6  C   UNL     1       3.612   5.267  19.916  0.00  0.00    +0.000 C 
ENDROOT
BRANCH   4   7
ATOM      7  C   UNL     1       4.574   3.819  17.361  0.00  0.00    +0.000 A 
ATOM      8  N   UNL     1       4.653   3.821  16.055  0.00  0.00    +0.000 NA
ATOM      9  C   UNL     1       5.937   4.253  15.819  0.00  0.00    +0.000 A 
ATOM     10  N   UNL     1       6.626   4.524  16.945  0.00  0.00    +0.000 NA
ATOM     11  O   UNL     1       5.717   4.244  17.968  0.00  0.00    +0.000 OA
BRANCH   9  12
ATOM     12  C   UNL     1       6.462   4.397  14.461  0.00  0.00    +0.000 A 
ATOM     13  C   UNL     1       5.972   3.628  13.411  0.00  0.00    +0.000 A 
ATOM     14  C   UNL     1       6.533   3.784  12.145  0.00  0.00    +0.000 A 
ATOM     15  C   UNL     1       7.561   4.703  11.963  0.00  0.00    +0.000 A 
ATOM     16  C   UNL     1       7.985   5.437  13.055  0.00  0.00    +0.000 A 
ATOM     17  N   UNL     1       7.461   5.309  14.291  0.00  0.00    +0.000 NA
ENDBRANCH   9  12
ENDBRANCH   4   7
BRANCH   1  18
ATOM     18  C   UNL     1       2.350   7.309  19.642  0.00  0.00    +0.000 C 
BRANCH  18  19
ATOM     19  C   UNL     1       1.352   7.803  20.698  0.00  0.00    +0.000 C 
BRANCH  19  21
ATOM     20  N   UNL     1       1.157   9.723  19.223  0.00  0.00    +0.000 N 
ATOM     21  C   UNL     1       0.849   9.217  20.462  0.00  0.00    +0.000 C 
ATOM     22  O   UNL     1       0.288   9.867  21.337  0.00  0.00    +0.000 OA
ATOM     23  H   UNL     1       1.561   9.071  18.554  0.00  0.00    +0.000 HD
BRANCH  20  25
ATOM     24  C   UNL     1       1.070  12.122  19.743  0.00  0.00    +0.000 C 
ATOM     25  C   UNL     1       0.742  11.021  18.734  0.00  0.00    +0.000 C 
BRANCH  25  26
ATOM     26  C   UNL     1      -0.746  10.969  18.421  0.00  0.00    +0.000 A 
ATOM     27  C   UNL     1      -1.244   9.977  17.564  0.00  0.00    +0.000 A 
ATOM     28  C   UNL     1      -2.615   9.875  17.324  0.00  0.00    +0.000 A 
ATOM     29  C   UNL     1      -3.490  10.756  17.945  0.00  0.00    +0.000 A 
ATOM     30  F   UNL     1      -4.806  10.639  17.732  0.00  0.00    +0.000 F 
ATOM     31  C   UNL     1      -3.023  11.751  18.792  0.00  0.00    +0.000 A 
ATOM     32  C   UNL     1      -1.652  11.862  19.023  0.00  0.00    +0.000 A 
ENDBRANCH  25  26
ENDBRANCH  20  25
ENDBRANCH  19  21
ENDBRANCH  18  19
ENDBRANCH   1  18
TORSDOF 7
ENDMDL
MODEL 3
REMARK VINA RESULT:      -8.4      6.101      8.839
REMARK  Name = 
REMARK  8 active torsions:
REMARK  status: ('A' for Active; 'I' for Inactive)
REMARK    1  A    between atoms: C_1  and  C_2
REMARK    2  A    between atoms: C_2  and  N_3
REMARK    3  A    between atoms: C_2  and  C_25
REMARK    4  A    between atoms: C_4  and  C_6
REMARK    5  A    between atoms: C_6  and  C_7
REMARK    6  A    between atoms: C_7  and  N_8
REMARK    7  A    between atoms: C_11  and  C_12
REMARK    8  A    between atoms: C_14  and  C_15
REMARK                            x       y       z     vdW  Elec       q    Type
REMARK                         _______ _______ _______ _____ _____    ______ ____
ROOT
ATOM      1  N   UNL     1       7.646   6.898  16.973  0.00  0.00    +0.000 NA
ATOM      2  C   UNL     1       7.627   5.863  18.022  0.00  0.00    +0.000 C 
ATOM      3  C   UNL     1       7.774   4.457  17.438  0.00  0.00    +0.000 C 
ATOM      4  C   UNL     1       6.700   4.162  16.389  0.00  0.00    +0.000 C 
ATOM      5  C   UNL     1       6.738   5.262  15.320  0.00  0.00    +0.000 C 
ATOM      6  C   UNL     1       6.633   6.665  15.929  0.00  0.00    +0.000 C 
ENDROOT
BRANCH   4   7
ATOM      7  C   UNL     1       5.345   4.069  17.002  0.00  0.00    +0.000 A 
ATOM      8  N   UNL     1       5.026   3.797  18.241  0.00  0.00    +0.000 NA
ATOM      9  C   UNL     1       3.652   3.763  18.211  0.00  0.00    +0.000 A 
ATOM     10  N   UNL     1       3.137   4.020  16.993  0.00  0.00    +0.000 NA
ATOM     11  O   UNL     1       4.262   4.233  16.192  0.00  0.00    +0.000 OA
BRANCH   9  12
ATOM     12  C   UNL     1       2.863   3.477  19.410  0.00  0.00    +0.000 A 
ATOM     13  C   UNL     1       3.405   2.777  20.482  0.00  0.00    +0.000 A 
ATOM     14  C   UNL     1       2.598   2.505  21.585  0.00  0.00    +0.000 A 
ATOM     15  C   UNL     1       1.278   2.941  21.587  0.00  0.00    +0.000 A 
ATOM     16  C   UNL     1       0.817   3.642  20.488  0.00  0.00    +0.000 A 
ATOM     17  N   UNL     1       1.575   3.921  19.408  0.00  0.00    +0.000 NA
ENDBRANCH   9  12
ENDBRANCH   4   7
BRANCH   1  18
ATOM     18  C   UNL     1       7.459   8.259  17.545  0.00  0.00    +0.000 C 
BRANCH  18  19
ATOM     19  C   UNL     1       8.527   8.675  18.566  0.00  0.00    +0.000 C 
BRANCH  19  21
ATOM     20  N   UNL     1       9.742  10.551  19.520  0.00  0.00    +0.000 N 
ATOM     21  C   UNL     1       8.869  10.155  18.536  0.00  0.00    +0.000 C 
ATOM     22  O   UNL     1       8.344  10.932  17.746  0.00  0.00    +0.000 OA
ATOM     23  H   UNL     1      10.168   9.810  20.072  0.00  0.00    +0.000 HD
BRANCH  20  25
ATOM     24  C   UNL     1      11.793  11.882  19.751  0.00  0.00    +0.000 C 
ATOM     25  C   UNL     1      10.266  11.892  19.669  0.00  0.00    +0.000 C 
BRANCH  25  26
ATOM     26  C   UNL     1       9.640  12.523  20.903  0.00  0.00    +0.000 A 
ATOM     27  C   UNL     1       8.862  11.741  21.769  0.00  0.00    +0.000 A 
ATOM     28  C   UNL     1       8.339  12.290  22.940  0.00  0.00    +0.000 A 
ATOM     29  C   UNL     1       8.600  13.618  23.254  0.00  0.00    +0.000 A 
ATOM     30  F   UNL     1       8.119  14.134  24.391  0.00  0.00    +0.000 F 
ATOM     31  C   UNL     1       9.362  14.416  22.412  0.00  0.00    +0.000 A 
ATOM     32  C   UNL     1       9.873  13.871  21.234  0.00  0.00    +0.000 A 
ENDBRANCH  25  26
ENDBRANCH  20  25
ENDBRANCH  19  21
ENDBRANCH  18  19
ENDBRANCH   1  18
TORSDOF 7
ENDMDL
MODEL 4
REMARK VINA RESULT:      -8.3      2.067      2.568
REMARK  Name = 
REMARK  8 active torsions:
REMARK  status: ('A' for Active; 'I' for Inactive)
REMARK    1  A    between atoms: C_1  and  C_2
REMARK    2  A    between atoms: C_2  and  N_3
REMARK    3  A    between atoms: C_2  and  C_25
REMARK    4  A    between atoms: C_4  and  C_6
REMARK    5  A    between atoms: C_6  and  C_7
REMARK    6  A    between atoms: C_7  and  N_8
REMARK    7  A    between atoms: C_11  and  C_12
REMARK    8  A    between atoms: C_14  and  C_15
REMARK                            x       y       z     vdW  Elec       q    Type
REMARK                         _______ _______ _______ _____ _____    ______ ____
ROOT
ATOM      1  N   UNL     1       2.394   5.991  19.274  0.00  0.00    +0.000 NA
ATOM      2  C   UNL     1       2.154   5.515  17.900  0.00  0.00    +0.000 C 
ATOM      3  C   UNL     1       2.249   3.991  17.800  0.00  0.00    +0.000 C 
ATOM      4  C   UNL     1       3.594   3.472  18.309  0.00  0.00    +0.000 C 
ATOM      5  C   UNL     1       3.819   3.993  19.735  0.00  0.00    +0.000 C 
ATOM      6  C   UNL     1       3.676   5.517  19.822  0.00  0.00    +0.000 C 
ENDROOT
BRANCH   4   7
ATOM      7  C   UNL     1       4.715   3.879  17.416  0.00  0.00    +0.000 A 
ATOM      8  N   UNL     1       4.752   3.896  16.109  0.00  0.00    +0.000 NA
ATOM      9  C   UNL     1       6.046   4.273  15.837  0.00  0.00    +0.000 A 
ATOM     10  N   UNL     1       6.782   4.498  16.943  0.00  0.00    +0.000 NA
ATOM     11  O   UNL     1       5.894   4.245  17.992  0.00  0.00    +0.000 OA
BRANCH   9  12
ATOM     12  C   UNL     1       6.534   4.413  14.464  0.00  0.00    +0.000 A 
ATOM     13  C   UNL     1       5.995   3.662  13.425  0.00  0.00    +0.000 A 
ATOM     14  C   UNL     1       6.521   3.813  12.144  0.00  0.00    +0.000 A 
ATOM     15  C   UNL     1       7.565   4.707  11.936  0.00  0.00    +0.000 A 
ATOM     16  C   UNL     1       8.038   5.425  13.018  0.00  0.00    +0.000 A 
ATOM     17  N   UNL     1       7.548   5.302  14.268  0.00  0.00    +0.000 NA
ENDBRANCH   9  12
ENDBRANCH   4   7
BRANCH   1  18
ATOM     18  C   UNL     1       2.342   7.476  19.355  0.00  0.00    +0.000 C 
BRANCH  18  19
ATOM     19  C   UNL     1       2.300   8.188  17.995  0.00  0.00    +0.000 C 
BRANCH  19  21
ATOM     20  N   UNL     1       1.954  10.544  18.479  0.00  0.00    +0.000 N 
ATOM     21  C   UNL     1       1.390   9.404  17.962  0.00  0.00    +0.000 C 
ATOM     22  O   UNL     1       0.227   9.341  17.576  0.00  0.00    +0.000 OA
ATOM     23  H   UNL     1       2.947  10.497  18.702  0.00  0.00    +0.000 HD
BRANCH  20  25
ATOM     24  C   UNL     1       2.350  12.964  18.608  0.00  0.00    +0.000 C 
ATOM     25  C   UNL     1       1.316  11.843  18.508  0.00  0.00    +0.000 C 
BRANCH  25  26
ATOM     26  C   UNL     1       0.335  11.876  19.670  0.00  0.00    +0.000 A 
ATOM     27  C   UNL     1      -0.991  12.279  19.452  0.00  0.00    +0.000 A 
ATOM     28  C   UNL     1      -1.918  12.248  20.494  0.00  0.00    +0.000 A 
ATOM     29  C   UNL     1      -1.527  11.807  21.751  0.00  0.00    +0.000 A 
ATOM     30  F   UNL     1      -2.425  11.753  22.742  0.00  0.00    +0.000 F 
ATOM     31  C   UNL     1      -0.220  11.408  21.996  0.00  0.00    +0.000 A 
ATOM     32  C   UNL     1       0.711  11.451  20.958  0.00  0.00    +0.000 A 
ENDBRANCH  25  26
ENDBRANCH  20  25
ENDBRANCH  19  21
ENDBRANCH  18  19
ENDBRANCH   1  18
TORSDOF 7
ENDMDL
MODEL 5
REMARK VINA RESULT:      -8.1      2.192      2.740
REMARK  Name = 
REMARK  8 active torsions:
REMARK  status: ('A' for Active; 'I' for Inactive)
REMARK    1  A    between atoms: C_1  and  C_2
REMARK    2  A    between atoms: C_2  and  N_3
REMARK    3  A    between atoms: C_2  and  C_25
REMARK    4  A    between atoms: C_4  and  C_6
REMARK    5  A    between atoms: C_6  and  C_7
REMARK    6  A    between atoms: C_7  and  N_8
REMARK    7  A    between atoms: C_11  and  C_12
REMARK    8  A    between atoms: C_14  and  C_15
REMARK                            x       y       z     vdW  Elec       q    Type
REMARK                         _______ _______ _______ _____ _____    ______ ____
ROOT
ATOM      1  N   UNL     1       2.179   5.415  19.337  0.00  0.00    +0.000 NA
ATOM      2  C   UNL     1       1.999   4.923  17.959  0.00  0.00    +0.000 C 
ATOM      3  C   UNL     1       2.311   3.430  17.841  0.00  0.00    +0.000 C 
ATOM      4  C   UNL     1       3.720   3.104  18.335  0.00  0.00    +0.000 C 
ATOM      5  C   UNL     1       3.880   3.637  19.764  0.00  0.00    +0.000 C 
ATOM      6  C   UNL     1       3.521   5.124  19.871  0.00  0.00    +0.000 C 
ENDROOT
BRANCH   4   7
ATOM      7  C   UNL     1       4.764   3.678  17.439  0.00  0.00    +0.000 A 
ATOM      8  N   UNL     1       4.828   3.641  16.133  0.00  0.00    +0.000 NA
ATOM      9  C   UNL     1       6.032   4.247  15.861  0.00  0.00    +0.000 A 
ATOM     10  N   UNL     1       6.684   4.661  16.965  0.00  0.00    +0.000 NA
ATOM     11  O   UNL     1       5.836   4.290  18.012  0.00  0.00    +0.000 OA
BRANCH   9  12
ATOM     12  C   UNL     1       6.517   4.414  14.490  0.00  0.00    +0.000 A 
ATOM     13  C   UNL     1       5.989   3.671  13.441  0.00  0.00    +0.000 A 
ATOM     14  C   UNL     1       6.512   3.848  12.162  0.00  0.00    +0.000 A 
ATOM     15  C   UNL     1       7.542   4.761  11.966  0.00  0.00    +0.000 A 
ATOM     16  C   UNL     1       8.005   5.471  13.059  0.00  0.00    +0.000 A 
ATOM     17  N   UNL     1       7.517   5.322  14.308  0.00  0.00    +0.000 NA
ENDBRANCH   9  12
ENDBRANCH   4   7
BRANCH   1  18
ATOM     18  C   UNL     1       1.915   6.875  19.435  0.00  0.00    +0.000 C 
BRANCH  18  19
ATOM     19  C   UNL     1       2.784   7.744  18.515  0.00  0.00    +0.000 C 
BRANCH  19  21
ATOM     20  N   UNL     1       1.294   9.565  19.124  0.00  0.00    +0.000 N 
ATOM     21  C   UNL     1       2.172   9.093  18.178  0.00  0.00    +0.000 C 
ATOM     22  O   UNL     1       2.390   9.664  17.115  0.00  0.00    +0.000 OA
ATOM     23  H   UNL     1       1.246   9.043  19.997  0.00  0.00    +0.000 HD
BRANCH  20  25
ATOM     24  C   UNL     1       1.632  11.987  18.894  0.00  0.00    +0.000 C 
ATOM     25  C   UNL     1       0.627  10.848  19.065  0.00  0.00    +0.000 C 
BRANCH  25  26
ATOM     26  C   UNL     1      -0.208  11.018  20.325  0.00  0.00    +0.000 A 
ATOM     27  C   UNL     1       0.107  10.281  21.477  0.00  0.00    +0.000 A 
ATOM     28  C   UNL     1      -0.606  10.479  22.659  0.00  0.00    +0.000 A 
ATOM     29  C   UNL     1      -1.629  11.418  22.697  0.00  0.00    +0.000 A 
ATOM     30  F   UNL     1      -2.294  11.624  23.841  0.00  0.00    +0.000 F 
ATOM     31  C   UNL     1      -1.965  12.156  21.571  0.00  0.00    +0.000 A 
ATOM     32  C   UNL     1      -1.261  11.950  20.385  0.00  0.00    +0.000 A 
ENDBRANCH  25  26
ENDBRANCH  20  25
ENDBRANCH  19  21
ENDBRANCH  18  19
ENDBRANCH   1  18
TORSDOF 7
ENDMDL
MODEL 6
REMARK VINA RESULT:      -8.1      6.395      9.923
REMARK  Name = 
REMARK  8 active torsions:
REMARK  status: ('A' for Active; 'I' for Inactive)
REMARK    1  A    between atoms: C_1  and  C_2
REMARK    2  A    between atoms: C_2  and  N_3
REMARK    3  A    between atoms: C_2  and  C_25
REMARK    4  A    between atoms: C_4  and  C_6
REMARK    5  A    between atoms: C_6  and  C_7
REMARK    6  A    between atoms: C_7  and  N_8
REMARK    7  A    between atoms: C_11  and  C_12
REMARK    8  A    between atoms: C_14  and  C_15
REMARK                            x       y       z     vdW  Elec       q    Type
REMARK                         _______ _______ _______ _____ _____    ______ ____
ROOT
ATOM      1  N   UNL     1       9.825  10.750  18.909  0.00  0.00    +0.000 NA
ATOM      2  C   UNL     1       9.322  11.632  17.840  0.00  0.00    +0.000 C 
ATOM      3  C   UNL     1      10.192  12.879  17.674  0.00  0.00    +0.000 C 
ATOM      4  C   UNL     1      10.321  13.660  18.982  0.00  0.00    +0.000 C 
ATOM      5  C   UNL     1      10.835  12.713  20.075  0.00  0.00    +0.000 C 
ATOM      6  C   UNL     1       9.976  11.449  20.196  0.00  0.00    +0.000 C 
ENDROOT
BRANCH   4   7
ATOM      7  C   UNL     1       9.026  14.276  19.386  0.00  0.00    +0.000 A 
ATOM      8  N   UNL     1       7.928  14.400  18.685  0.00  0.00    +0.000 NA
ATOM      9  C   UNL     1       7.101  15.111  19.522  0.00  0.00    +0.000 A 
ATOM     10  N   UNL     1       7.665  15.405  20.709  0.00  0.00    +0.000 NA
ATOM     11  O   UNL     1       8.941  14.842  20.621  0.00  0.00    +0.000 OA
BRANCH   9  12
ATOM     12  C   UNL     1       5.743  15.487  19.124  0.00  0.00    +0.000 A 
ATOM     13  C   UNL     1       4.937  16.263  19.949  0.00  0.00    +0.000 A 
ATOM     14  C   UNL     1       3.641  16.562  19.534  0.00  0.00    +0.000 A 
ATOM     15  C   UNL     1       3.189  16.082  18.310  0.00  0.00    +0.000 A 
ATOM     16  C   UNL     1       4.055  15.326  17.542  0.00  0.00    +0.000 A 
ATOM     17  N   UNL     1       5.315  15.022  17.917  0.00  0.00    +0.000 NA
ENDBRANCH   9  12
ENDBRANCH   4   7
BRANCH   1  18
ATOM     18  C   UNL     1       8.950   9.561  19.093  0.00  0.00    +0.000 C 
BRANCH  18  19
ATOM     19  C   UNL     1       8.202   9.116  17.829  0.00  0.00    +0.000 C 
BRANCH  19  21
ATOM     20  N   UNL     1       6.586   7.458  17.090  0.00  0.00    +0.000 N 
ATOM     21  C   UNL     1       7.680   7.690  17.888  0.00  0.00    +0.000 C 
ATOM     22  O   UNL     1       8.154   6.850  18.645  0.00  0.00    +0.000 OA
ATOM     23  H   UNL     1       6.324   8.207  16.452  0.00  0.00    +0.000 HD
BRANCH  20  25
ATOM     24  C   UNL     1       5.485   5.964  15.481  0.00  0.00    +0.000 C 
ATOM     25  C   UNL     1       5.941   6.173  16.926  0.00  0.00    +0.000 C 
BRANCH  25  26
ATOM     26  C   UNL     1       4.777   6.086  17.901  0.00  0.00    +0.000 A 
ATOM     27  C   UNL     1       3.688   6.961  17.768  0.00  0.00    +0.000 A 
ATOM     28  C   UNL     1       2.583   6.846  18.612  0.00  0.00    +0.000 A 
ATOM     29  C   UNL     1       2.559   5.854  19.584  0.00  0.00    +0.000 A 
ATOM     30  F   UNL     1       1.486   5.731  20.374  0.00  0.00    +0.000 F 
ATOM     31  C   UNL     1       3.625   4.979  19.741  0.00  0.00    +0.000 A 
ATOM     32  C   UNL     1       4.735   5.102  18.906  0.00  0.00    +0.000 A 
ENDBRANCH  25  26
ENDBRANCH  20  25
ENDBRANCH  19  21
ENDBRANCH  18  19
ENDBRANCH   1  18
TORSDOF 7
ENDMDL
MODEL 7
REMARK VINA RESULT:      -8.0      1.125      1.389
REMARK  Name = 
REMARK  8 active torsions:
REMARK  status: ('A' for Active; 'I' for Inactive)
REMARK    1  A    between atoms: C_1  and  C_2
REMARK    2  A    between atoms: C_2  and  N_3
REMARK    3  A    between atoms: C_2  and  C_25
REMARK    4  A    between atoms: C_4  and  C_6
REMARK    5  A    between atoms: C_6  and  C_7
REMARK    6  A    between atoms: C_7  and  N_8
REMARK    7  A    between atoms: C_11  and  C_12
REMARK    8  A    between atoms: C_14  and  C_15
REMARK                            x       y       z     vdW  Elec       q    Type
REMARK                         _______ _______ _______ _____ _____    ______ ____
ROOT
ATOM      1  N   UNL     1       2.516   6.078  19.272  0.00  0.00    +0.000 NA
ATOM      2  C   UNL     1       2.234   5.662  17.886  0.00  0.00    +0.000 C 
ATOM      3  C   UNL     1       2.213   4.139  17.740  0.00  0.00    +0.000 C 
ATOM      4  C   UNL     1       3.518   3.505  18.223  0.00  0.00    +0.000 C 
ATOM      5  C   UNL     1       3.790   3.966  19.661  0.00  0.00    +0.000 C 
ATOM      6  C   UNL     1       3.763   5.492  19.795  0.00  0.00    +0.000 C 
ENDROOT
BRANCH   4   7
ATOM      7  C   UNL     1       4.661   3.854  17.333  0.00  0.00    +0.000 A 
ATOM      8  N   UNL     1       4.705   3.861  16.025  0.00  0.00    +0.000 NA
ATOM      9  C   UNL     1       6.016   4.176  15.757  0.00  0.00    +0.000 A 
ATOM     10  N   UNL     1       6.757   4.373  16.865  0.00  0.00    +0.000 NA
ATOM     11  O   UNL     1       5.853   4.168  17.912  0.00  0.00    +0.000 OA
BRANCH   9  12
ATOM     12  C   UNL     1       6.517   4.284  14.386  0.00  0.00    +0.000 A 
ATOM     13  C   UNL     1       7.490   5.215  14.043  0.00  0.00    +0.000 A 
ATOM     14  C   UNL     1       7.905   5.295  12.715  0.00  0.00    +0.000 A 
ATOM     15  C   UNL     1       7.341   4.444  11.772  0.00  0.00    +0.000 A 
ATOM     16  C   UNL     1       6.386   3.538  12.194  0.00  0.00    +0.000 A 
ATOM     17  N   UNL     1       5.966   3.436  13.472  0.00  0.00    +0.000 NA
ENDBRANCH   9  12
ENDBRANCH   4   7
BRANCH   1  18
ATOM     18  C   UNL     1       2.577   7.559  19.396  0.00  0.00    +0.000 C 
BRANCH  18  19
ATOM     19  C   UNL     1       1.382   8.188  20.125  0.00  0.00    +0.000 C 
BRANCH  19  21
ATOM     20  N   UNL     1      -0.299   9.935  19.959  0.00  0.00    +0.000 N 
ATOM     21  C   UNL     1       0.953   9.534  19.565  0.00  0.00    +0.000 C 
ATOM     22  O   UNL     1       1.643  10.160  18.767  0.00  0.00    +0.000 OA
ATOM     23  H   UNL     1      -0.750   9.371  20.678  0.00  0.00    +0.000 HD
BRANCH  20  25
ATOM     24  C   UNL     1      -1.579  11.844  20.825  0.00  0.00    +0.000 C 
ATOM     25  C   UNL     1      -0.911  11.199  19.611  0.00  0.00    +0.000 C 
BRANCH  25  26
ATOM     26  C   UNL     1      -1.903  10.964  18.482  0.00  0.00    +0.000 A 
ATOM     27  C   UNL     1      -3.111  11.676  18.454  0.00  0.00    +0.000 A 
ATOM     28  C   UNL     1      -3.999  11.521  17.389  0.00  0.00    +0.000 A 
ATOM     29  C   UNL     1      -3.678  10.663  16.345  0.00  0.00    +0.000 A 
ATOM     30  F   UNL     1      -4.519  10.537  15.312  0.00  0.00    +0.000 F 
ATOM     31  C   UNL     1      -2.491   9.942  16.349  0.00  0.00    +0.000 A 
ATOM     32  C   UNL     1      -1.610  10.086  17.421  0.00  0.00    +0.000 A 
ENDBRANCH  25  26
ENDBRANCH  20  25
ENDBRANCH  19  21
ENDBRANCH  18  19
ENDBRANCH   1  18
TORSDOF 7
ENDMDL
MODEL 8
REMARK VINA RESULT:      -8.0      3.691      8.522
REMARK  Name = 
REMARK  8 active torsions:
REMARK  status: ('A' for Active; 'I' for Inactive)
REMARK    1  A    between atoms: C_1  and  C_2
REMARK    2  A    between atoms: C_2  and  N_3
REMARK    3  A    between atoms: C_2  and  C_25
REMARK    4  A    between atoms: C_4  and  C_6
REMARK    5  A    between atoms: C_6  and  C_7
REMARK    6  A    between atoms: C_7  and  N_8
REMARK    7  A    between atoms: C_11  and  C_12
REMARK    8  A    between atoms: C_14  and  C_15
REMARK                            x       y       z     vdW  Elec       q    Type
REMARK                         _______ _______ _______ _____ _____    ______ ____
ROOT
ATOM      1  N   UNL     1       2.264   1.929  19.178  0.00  0.00    +0.000 NA
ATOM      2  C   UNL     1       3.300   2.563  20.013  0.00  0.00    +0.000 C 
ATOM      3  C   UNL     1       2.758   2.967  21.385  0.00  0.00    +0.000 C 
ATOM      4  C   UNL     1       1.543   3.887  21.267  0.00  0.00    +0.000 C 
ATOM      5  C   UNL     1       0.489   3.206  20.384  0.00  0.00    +0.000 C 
ATOM      6  C   UNL     1       1.063   2.770  19.031  0.00  0.00    +0.000 C 
ENDROOT
BRANCH   4   7
ATOM      7  C   UNL     1       1.914   5.219  20.711  0.00  0.00    +0.000 A 
ATOM      8  N   UNL     1       1.217   6.327  20.711  0.00  0.00    +0.000 NA
ATOM      9  C   UNL     1       2.010   7.196  19.999  0.00  0.00    +0.000 A 
ATOM     10  N   UNL     1       3.169   6.647  19.586  0.00  0.00    +0.000 NA
ATOM     11  O   UNL     1       3.108   5.336  20.067  0.00  0.00    +0.000 OA
BRANCH   9  12
ATOM     12  C   UNL     1       1.600   8.577  19.744  0.00  0.00    +0.000 A 
ATOM     13  C   UNL     1       1.711   9.142  18.479  0.00  0.00    +0.000 A 
ATOM     14  C   UNL     1       1.336  10.473  18.301  0.00  0.00    +0.000 A 
ATOM     15  C   UNL     1       0.861  11.198  19.388  0.00  0.00    +0.000 A 
ATOM     16  C   UNL     1       0.770  10.561  20.612  0.00  0.00    +0.000 A 
ATOM     17  N   UNL     1       1.123   9.275  20.813  0.00  0.00    +0.000 NA
ENDBRANCH   9  12
ENDBRANCH   4   7
BRANCH   1  18
ATOM     18  C   UNL     1       2.787   1.578  17.830  0.00  0.00    +0.000 C 
BRANCH  18  19
ATOM     19  C   UNL     1       4.241   2.002  17.579  0.00  0.00    +0.000 C 
BRANCH  19  21
ATOM     20  N   UNL     1       5.628   3.639  16.440  0.00  0.00    +0.000 N 
ATOM     21  C   UNL     1       4.386   3.385  16.969  0.00  0.00    +0.000 C 
ATOM     22  O   UNL     1       3.490   4.221  17.020  0.00  0.00    +0.000 OA
ATOM     23  H   UNL     1       6.269   2.849  16.388  0.00  0.00    +0.000 HD
BRANCH  20  25
ATOM     24  C   UNL     1       6.769   4.553  14.466  0.00  0.00    +0.000 C 
ATOM     25  C   UNL     1       6.000   4.857  15.753  0.00  0.00    +0.000 C 
BRANCH  25  26
ATOM     26  C   UNL     1       6.815   5.722  16.703  0.00  0.00    +0.000 A 
ATOM     27  C   UNL     1       6.933   7.099  16.465  0.00  0.00    +0.000 A 
ATOM     28  C   UNL     1       7.618   7.915  17.366  0.00  0.00    +0.000 A 
ATOM     29  C   UNL     1       8.178   7.360  18.509  0.00  0.00    +0.000 A 
ATOM     30  F   UNL     1       8.811   8.150  19.385  0.00  0.00    +0.000 F 
ATOM     31  C   UNL     1       8.080   5.999  18.766  0.00  0.00    +0.000 A 
ATOM     32  C   UNL     1       7.407   5.181  17.860  0.00  0.00    +0.000 A 
ENDBRANCH  25  26
ENDBRANCH  20  25
ENDBRANCH  19  21
ENDBRANCH  18  19
ENDBRANCH   1  18
TORSDOF 7
ENDMDL
MODEL 9
REMARK VINA RESULT:      -8.0      2.156      2.652
REMARK  Name = 
REMARK  8 active torsions:
REMARK  status: ('A' for Active; 'I' for Inactive)
REMARK    1  A    between atoms: C_1  and  C_2
REMARK    2  A    between atoms: C_2  and  N_3
REMARK    3  A    between atoms: C_2  and  C_25
REMARK    4  A    between atoms: C_4  and  C_6
REMARK    5  A    between atoms: C_6  and  C_7
REMARK    6  A    between atoms: C_7  and  N_8
REMARK    7  A    between atoms: C_11  and  C_12
REMARK    8  A    between atoms: C_14  and  C_15
REMARK                            x       y       z     vdW  Elec       q    Type
REMARK                         _______ _______ _______ _____ _____    ______ ____
ROOT
ATOM      1  N   UNL     1       2.542   5.924  18.934  0.00  0.00    +0.000 NA
ATOM      2  C   UNL     1       2.456   4.989  17.798  0.00  0.00    +0.000 C 
ATOM      3  C   UNL     1       2.932   3.586  18.177  0.00  0.00    +0.000 C 
ATOM      4  C   UNL     1       4.354   3.601  18.738  0.00  0.00    +0.000 C 
ATOM      5  C   UNL     1       4.414   4.590  19.909  0.00  0.00    +0.000 C 
ATOM      6  C   UNL     1       3.892   5.978  19.521  0.00  0.00    +0.000 C 
ENDROOT
BRANCH   4   7
ATOM      7  C   UNL     1       5.354   3.960  17.693  0.00  0.00    +0.000 A 
ATOM      8  N   UNL     1       5.205   3.977  16.393  0.00  0.00    +0.000 NA
ATOM      9  C   UNL     1       6.463   4.299  15.938  0.00  0.00    +0.000 A 
ATOM     10  N   UNL     1       7.357   4.490  16.928  0.00  0.00    +0.000 NA
ATOM     11  O   UNL     1       6.617   4.274  18.093  0.00  0.00    +0.000 OA
BRANCH   9  12
ATOM     12  C   UNL     1       6.756   4.418  14.509  0.00  0.00    +0.000 A 
ATOM     13  C   UNL     1       6.109   3.624  13.569  0.00  0.00    +0.000 A 
ATOM     14  C   UNL     1       6.453   3.759  12.226  0.00  0.00    +0.000 A 
ATOM     15  C   UNL     1       7.427   4.681  11.860  0.00  0.00    +0.000 A 
ATOM     16  C   UNL     1       8.016   5.441  12.853  0.00  0.00    +0.000 A 
ATOM     17  N   UNL     1       7.703   5.335  14.160  0.00  0.00    +0.000 NA
ENDBRANCH   9  12
ENDBRANCH   4   7
BRANCH   1  18
ATOM     18  C   UNL     1       2.119   7.297  18.546  0.00  0.00    +0.000 C 
BRANCH  18  19
ATOM     19  C   UNL     1       1.691   8.189  19.720  0.00  0.00    +0.000 C 
BRANCH  19  21
ATOM     20  N   UNL     1       0.998  10.438  20.322  0.00  0.00    +0.000 N 
ATOM     21  C   UNL     1       1.109   9.528  19.300  0.00  0.00    +0.000 C 
ATOM     22  O   UNL     1       0.704   9.737  18.161  0.00  0.00    +0.000 OA
ATOM     23  H   UNL     1       1.431  10.182  21.207  0.00  0.00    +0.000 HD
BRANCH  20  25
ATOM     24  C   UNL     1       1.598  12.803  20.602  0.00  0.00    +0.000 C 
ATOM     25  C   UNL     1       0.529  11.799  20.169  0.00  0.00    +0.000 C 
BRANCH  25  26
ATOM     26  C   UNL     1      -0.755  11.964  20.967  0.00  0.00    +0.000 A 
ATOM     27  C   UNL     1      -0.758  11.699  22.345  0.00  0.00    +0.000 A 
ATOM     28  C   UNL     1      -1.911  11.912  23.102  0.00  0.00    +0.000 A 
ATOM     29  C   UNL     1      -3.058  12.398  22.488  0.00  0.00    +0.000 A 
ATOM     30  F   UNL     1      -4.154  12.626  23.222  0.00  0.00    +0.000 F 
ATOM     31  C   UNL     1      -3.084  12.662  21.126  0.00  0.00    +0.000 A 
ATOM     32  C   UNL     1      -1.936  12.437  20.366  0.00  0.00    +0.000 A 
ENDBRANCH  25  26
ENDBRANCH  20  25
ENDBRANCH  19  21
ENDBRANCH  18  19
ENDBRANCH   1  18
TORSDOF 7
ENDMDL
