MODEL 1
REMARK VINA RESULT:      -7.8      0.000      0.000
REMARK  Name = 
REMARK  10 active torsions:
REMARK  status: ('A' for Active; 'I' for Inactive)
REMARK    1  A    between atoms: C_1  and  C_2
REMARK    2  A    between atoms: C_2  and  N_3
REMARK    3  A    between atoms: N_6  and  C_7
REMARK    4  A    between atoms: C_7  and  C_8
REMARK    5  A    between atoms: C_8  and  S_9
REMARK    6  A    between atoms: S_9  and  C_10
REMARK    7  A    between atoms: C_12  and  C_13
REMARK    8  A    between atoms: C_19  and  C_20
REMARK    9  A    between atoms: N_26  and  C_27
REMARK   10  A    between atoms: C_27  and  C_28
REMARK                            x       y       z     vdW  Elec       q    Type
REMARK                         _______ _______ _______ _____ _____    ______ ____
ROOT
ATOM      1  C   UNL     1       5.171   6.518  17.471  0.00  0.00    +0.000 A 
ATOM      2  N   UNL     1       4.399   7.565  17.637  0.00  0.00    +0.000 NA
ATOM      3  C   UNL     1       3.292   7.111  18.311  0.00  0.00    +0.000 A 
ATOM      4  C   UNL     1       3.354   5.729  18.515  0.00  0.00    +0.000 A 
ATOM      5  N   UNL     1       4.621   5.374  18.007  0.00  0.00    +0.000 N 
ENDROOT
BRANCH   3   6
ATOM      6  C   UNL     1       2.206   8.007  18.707  0.00  0.00    +0.000 A 
ATOM      7  C   UNL     1       1.817   8.098  20.050  0.00  0.00    +0.000 A 
ATOM      8  C   UNL     1       0.864   9.043  20.451  0.00  0.00    +0.000 A 
ATOM      9  C   UNL     1       0.296   9.908  19.518  0.00  0.00    +0.000 A 
ATOM     10  C   UNL     1       0.639   9.797  18.175  0.00  0.00    +0.000 A 
ATOM     11  C   UNL     1       1.563   8.830  17.769  0.00  0.00    +0.000 A 
ENDBRANCH   3   6
BRANCH   4  12
ATOM     12  C   UNL     1       2.348   4.807  19.102  0.00  0.00    +0.000 A 
ATOM     13  C   UNL     1       2.304   4.605  20.494  0.00  0.00    +0.000 A 
ATOM     14  C   UNL     1       1.475   3.635  21.066  0.00  0.00    +0.000 A 
ATOM     15  C   UNL     1       0.609   2.898  20.265  0.00  0.00    +0.000 A 
ATOM     16  C   UNL     1       0.595   3.116  18.893  0.00  0.00    +0.000 A 
ATOM     17  C   UNL     1       1.481   4.034  18.317  0.00  0.00    +0.000 A 
ENDBRANCH   4  12
BRANCH   5  18
ATOM     18  C   UNL     1       5.178   4.039  18.155  0.00  0.00    +0.000 C 
ATOM     19  C   UNL     1       4.681   2.828  17.380  0.00  0.00    +0.000 C 
ENDBRANCH   5  18
BRANCH   1  20
ATOM     20  S   UNL     1       6.702   6.601  16.662  0.00  0.00    +0.000 S 
BRANCH  20  21
ATOM     21  C   UNL     1       7.814   7.246  17.950  0.00  0.00    +0.000 C 
BRANCH  21  22
ATOM     22  C   UNL     1       8.017   8.761  17.864  0.00  0.00    +0.000 C 
BRANCH  22  26
ATOM     23  N   UNL     1      10.062  10.809  20.084  0.00  0.00    +0.000 N 
ATOM     24  C   UNL     1       9.353  10.536  18.937  0.00  0.00    +0.000 C 
ATOM     25  O   UNL     1       9.227  11.321  18.004  0.00  0.00    +0.000 OA
ATOM     26  N   UNL     1       8.811   9.282  18.965  0.00  0.00    +0.000 N 
ATOM     27  H   UNL     1      10.361  10.008  20.624  0.00  0.00    +0.000 HD
ATOM     28  H   UNL     1       8.693   8.849  19.872  0.00  0.00    +0.000 HD
BRANCH  23  30
ATOM     29  C   UNL     1      12.233  11.927  19.803  0.00  0.00    +0.000 C 
ATOM     30  C   UNL     1      10.792  12.045  20.256  0.00  0.00    +0.000 C 
ENDBRANCH  23  30
ENDBRANCH  22  26
ENDBRANCH  21  22
ENDBRANCH  20  21
ENDBRANCH   1  20
TORSDOF 8
ENDMDL
MODEL 2
REMARK VINA RESULT:      -7.6      1.293      1.715
REMARK  Name = 
REMARK  10 active torsions:
REMARK  status: ('A' for Active; 'I' for Inactive)
REMARK    1  A    between atoms: C_1  and  C_2
REMARK    2  A    between atoms: C_2  and  N_3
REMARK    3  A    between atoms: N_6  and  C_7
REMARK    4  A    between atoms: C_7  and  C_8
REMARK    5  A    between atoms: C_8  and  S_9
REMARK    6  A    between atoms: S_9  and  C_10
REMARK    7  A    between atoms: C_12  and  C_13
REMARK    8  A    between atoms: C_19  and  C_20
REMARK    9  A    between atoms: N_26  and  C_27
REMARK   10  A    between atoms: C_27  and  C_28
REMARK                            x       y       z     vdW  Elec       q    Type
REMARK                         _______ _______ _______ _____ _____    ______ ____
ROOT
ATOM      1  C   UNL     1       4.466   6.143  16.950  0.00  0.00    +0.000 A 
ATOM      2  N   UNL     1       3.838   7.231  17.327  0.00  0.00    +0.000 NA
ATOM      3  C   UNL     1       3.032   6.855  18.373  0.00  0.00    +0.000 A 
ATOM      4  C   UNL     1       3.119   5.480  18.611  0.00  0.00    +0.000 A 
ATOM      5  N   UNL     1       4.109   5.047  17.704  0.00  0.00    +0.000 N 
ENDROOT
BRANCH   3   6
ATOM      6  C   UNL     1       2.189   7.816  19.084  0.00  0.00    +0.000 A 
ATOM      7  C   UNL     1       1.609   8.892  18.400  0.00  0.00    +0.000 A 
ATOM      8  C   UNL     1       0.704   9.743  19.048  0.00  0.00    +0.000 A 
ATOM      9  C   UNL     1       0.367   9.524  20.382  0.00  0.00    +0.000 A 
ATOM     10  C   UNL     1       0.971   8.488  21.086  0.00  0.00    +0.000 A 
ATOM     11  C   UNL     1       1.901   7.662  20.449  0.00  0.00    +0.000 A 
ENDBRANCH   3   6
BRANCH   4  12
ATOM     12  C   UNL     1       2.361   4.629  19.564  0.00  0.00    +0.000 A 
ATOM     13  C   UNL     1       2.873   4.384  20.851  0.00  0.00    +0.000 A 
ATOM     14  C   UNL     1       2.264   3.469  21.718  0.00  0.00    +0.000 A 
ATOM     15  C   UNL     1       1.081   2.839  21.347  0.00  0.00    +0.000 A 
ATOM     16  C   UNL     1       0.527   3.104  20.101  0.00  0.00    +0.000 A 
ATOM     17  C   UNL     1       1.181   3.961  19.208  0.00  0.00    +0.000 A 
ENDBRANCH   4  12
BRANCH   5  18
ATOM     18  C   UNL     1       4.638   3.693  17.710  0.00  0.00    +0.000 C 
ATOM     19  C   UNL     1       3.807   2.461  17.385  0.00  0.00    +0.000 C 
ENDBRANCH   5  18
BRANCH   1  20
ATOM     20  S   UNL     1       5.608   6.124  15.646  0.00  0.00    +0.000 S 
BRANCH  20  21
ATOM     21  C   UNL     1       7.213   6.173  16.502  0.00  0.00    +0.000 C 
BRANCH  21  22
ATOM     22  C   UNL     1       7.200   7.058  17.751  0.00  0.00    +0.000 C 
BRANCH  22  26
ATOM     23  N   UNL     1       8.557  10.444  17.742  0.00  0.00    +0.000 N 
ATOM     24  C   UNL     1       8.415   9.157  18.207  0.00  0.00    +0.000 C 
ATOM     25  O   UNL     1       9.015   8.706  19.176  0.00  0.00    +0.000 OA
ATOM     26  N   UNL     1       7.522   8.445  17.457  0.00  0.00    +0.000 N 
ATOM     27  H   UNL     1       7.807  10.793  17.162  0.00  0.00    +0.000 HD
ATOM     28  H   UNL     1       7.334   8.779  16.520  0.00  0.00    +0.000 HD
BRANCH  23  30
ATOM     29  C   UNL     1      10.580  11.832  17.578  0.00  0.00    +0.000 C 
ATOM     30  C   UNL     1       9.390  11.413  18.418  0.00  0.00    +0.000 C 
ENDBRANCH  23  30
ENDBRANCH  22  26
ENDBRANCH  21  22
ENDBRANCH  20  21
ENDBRANCH   1  20
TORSDOF 8
ENDMDL
MODEL 3
REMARK VINA RESULT:      -7.5      3.393      4.912
REMARK  Name = 
REMARK  10 active torsions:
REMARK  status: ('A' for Active; 'I' for Inactive)
REMARK    1  A    between atoms: C_1  and  C_2
REMARK    2  A    between atoms: C_2  and  N_3
REMARK    3  A    between atoms: N_6  and  C_7
REMARK    4  A    between atoms: C_7  and  C_8
REMARK    5  A    between atoms: C_8  and  S_9
REMARK    6  A    between atoms: S_9  and  C_10
REMARK    7  A    between atoms: C_12  and  C_13
REMARK    8  A    between atoms: C_19  and  C_20
REMARK    9  A    between atoms: N_26  and  C_27
REMARK   10  A    between atoms: C_27  and  C_28
REMARK                            x       y       z     vdW  Elec       q    Type
REMARK                         _______ _______ _______ _____ _____    ______ ____
ROOT
ATOM      1  C   UNL     1       4.062   6.687  17.271  0.00  0.00    +0.000 A 
ATOM      2  N   UNL     1       3.374   7.690  17.765  0.00  0.00    +0.000 NA
ATOM      3  C   UNL     1       2.629   7.164  18.791  0.00  0.00    +0.000 A 
ATOM      4  C   UNL     1       2.816   5.783  18.897  0.00  0.00    +0.000 A 
ATOM      5  N   UNL     1       3.803   5.504  17.929  0.00  0.00    +0.000 N 
ENDROOT
BRANCH   3   6
ATOM      6  C   UNL     1       1.747   7.995  19.610  0.00  0.00    +0.000 A 
ATOM      7  C   UNL     1       1.163   9.151  19.074  0.00  0.00    +0.000 A 
ATOM      8  C   UNL     1       0.223   9.880  19.812  0.00  0.00    +0.000 A 
ATOM      9  C   UNL     1      -0.147   9.461  21.089  0.00  0.00    +0.000 A 
ATOM     10  C   UNL     1       0.459   8.343  21.651  0.00  0.00    +0.000 A 
ATOM     11  C   UNL     1       1.424   7.636  20.927  0.00  0.00    +0.000 A 
ENDBRANCH   3   6
BRANCH   4  12
ATOM     12  C   UNL     1       2.148   4.797  19.786  0.00  0.00    +0.000 A 
ATOM     13  C   UNL     1       2.661   4.544  21.071  0.00  0.00    +0.000 A 
ATOM     14  C   UNL     1       2.150   3.519  21.874  0.00  0.00    +0.000 A 
ATOM     15  C   UNL     1       1.058   2.774  21.442  0.00  0.00    +0.000 A 
ATOM     16  C   UNL     1       0.499   3.039  20.198  0.00  0.00    +0.000 A 
ATOM     17  C   UNL     1       1.062   4.015  19.367  0.00  0.00    +0.000 A 
ENDBRANCH   4  12
BRANCH   5  18
ATOM     18  C   UNL     1       4.422   4.196  17.796  0.00  0.00    +0.000 C 
ATOM     19  C   UNL     1       5.312   3.572  18.860  0.00  0.00    +0.000 C 
ENDBRANCH   5  18
BRANCH   1  20
ATOM     20  S   UNL     1       5.161   6.867  15.943  0.00  0.00    +0.000 S 
BRANCH  20  21
ATOM     21  C   UNL     1       6.790   6.869  16.752  0.00  0.00    +0.000 C 
BRANCH  21  22
ATOM     22  C   UNL     1       7.537   5.542  16.602  0.00  0.00    +0.000 C 
BRANCH  22  26
ATOM     23  N   UNL     1       6.329   3.656  13.723  0.00  0.00    +0.000 N 
ATOM     24  C   UNL     1       7.080   4.616  14.361  0.00  0.00    +0.000 C 
ATOM     25  O   UNL     1       7.849   5.379  13.789  0.00  0.00    +0.000 OA
ATOM     26  N   UNL     1       6.859   4.616  15.710  0.00  0.00    +0.000 N 
ATOM     27  H   UNL     1       5.521   3.316  14.226  0.00  0.00    +0.000 HD
ATOM     28  H   UNL     1       6.476   3.771  16.116  0.00  0.00    +0.000 HD
BRANCH  23  30
ATOM     29  C   UNL     1       4.975   3.111  11.744  0.00  0.00    +0.000 C 
ATOM     30  C   UNL     1       6.333   3.514  12.284  0.00  0.00    +0.000 C 
ENDBRANCH  23  30
ENDBRANCH  22  26
ENDBRANCH  21  22
ENDBRANCH  20  21
ENDBRANCH   1  20
TORSDOF 8
ENDMDL
MODEL 4
REMARK VINA RESULT:      -7.4      3.582      5.074
REMARK  Name = 
REMARK  10 active torsions:
REMARK  status: ('A' for Active; 'I' for Inactive)
REMARK    1  A    between atoms: C_1  and  C_2
REMARK    2  A    between atoms: C_2  and  N_3
REMARK    3  A    between atoms: N_6  and  C_7
REMARK    4  A    between atoms: C_7  and  C_8
REMARK    5  A    between atoms: C_8  and  S_9
REMARK    6  A    between atoms: S_9  and  C_10
REMARK    7  A    between atoms: C_12  and  C_13
REMARK    8  A    between atoms: C_19  and  C_20
REMARK    9  A    between atoms: N_26  and  C_27
REMARK   10  A    between atoms: C_27  and  C_28
REMARK                            x       y       z     vdW  Elec       q    Type
REMARK                         _______ _______ _______ _____ _____    ______ ____
ROOT
ATOM      1  C   UNL     1       4.087   6.759  17.205  0.00  0.00    +0.000 A 
ATOM      2  N   UNL     1       3.394   7.752  17.710  0.00  0.00    +0.000 NA
ATOM      3  C   UNL     1       2.645   7.209  18.725  0.00  0.00    +0.000 A 
ATOM      4  C   UNL     1       2.835   5.826  18.811  0.00  0.00    +0.000 A 
ATOM      5  N   UNL     1       3.828   5.565  17.844  0.00  0.00    +0.000 N 
ENDROOT
BRANCH   3   6
ATOM      6  C   UNL     1       1.756   8.024  19.552  0.00  0.00    +0.000 A 
ATOM      7  C   UNL     1       1.536   7.693  20.895  0.00  0.00    +0.000 A 
ATOM      8  C   UNL     1       0.785   8.538  21.722  0.00  0.00    +0.000 A 
ATOM      9  C   UNL     1       0.253   9.723  21.217  0.00  0.00    +0.000 A 
ATOM     10  C   UNL     1       0.424  10.041  19.874  0.00  0.00    +0.000 A 
ATOM     11  C   UNL     1       1.143   9.179  19.041  0.00  0.00    +0.000 A 
ENDBRANCH   3   6
BRANCH   4  12
ATOM     12  C   UNL     1       2.166   4.825  19.681  0.00  0.00    +0.000 A 
ATOM     13  C   UNL     1       2.635   4.600  20.988  0.00  0.00    +0.000 A 
ATOM     14  C   UNL     1       2.128   3.564  21.779  0.00  0.00    +0.000 A 
ATOM     15  C   UNL     1       1.080   2.779  21.311  0.00  0.00    +0.000 A 
ATOM     16  C   UNL     1       0.563   3.015  20.043  0.00  0.00    +0.000 A 
ATOM     17  C   UNL     1       1.125   4.003  19.226  0.00  0.00    +0.000 A 
ENDBRANCH   4  12
BRANCH   5  18
ATOM     18  C   UNL     1       4.452   4.261  17.694  0.00  0.00    +0.000 C 
ATOM     19  C   UNL     1       5.315   3.611  18.765  0.00  0.00    +0.000 C 
ENDBRANCH   5  18
BRANCH   1  20
ATOM     20  S   UNL     1       5.191   6.962  15.885  0.00  0.00    +0.000 S 
BRANCH  20  21
ATOM     21  C   UNL     1       6.812   6.656  16.653  0.00  0.00    +0.000 C 
BRANCH  21  22
ATOM     22  C   UNL     1       7.478   5.370  16.157  0.00  0.00    +0.000 C 
BRANCH  22  26
ATOM     23  N   UNL     1       6.481   4.058  12.902  0.00  0.00    +0.000 N 
ATOM     24  C   UNL     1       6.550   4.070  14.276  0.00  0.00    +0.000 C 
ATOM     25  O   UNL     1       6.037   3.222  14.996  0.00  0.00    +0.000 OA
ATOM     26  N   UNL     1       7.264   5.140  14.737  0.00  0.00    +0.000 N 
ATOM     27  H   UNL     1       7.183   4.600  12.417  0.00  0.00    +0.000 HD
ATOM     28  H   UNL     1       7.363   5.932  14.116  0.00  0.00    +0.000 HD
BRANCH  23  30
ATOM     29  C   UNL     1       4.524   3.408  11.564  0.00  0.00    +0.000 C 
ATOM     30  C   UNL     1       5.843   2.982  12.177  0.00  0.00    +0.000 C 
ENDBRANCH  23  30
ENDBRANCH  22  26
ENDBRANCH  21  22
ENDBRANCH  20  21
ENDBRANCH   1  20
TORSDOF 8
ENDMDL
MODEL 5
REMARK VINA RESULT:      -7.3      3.717      5.709
REMARK  Name = 
REMARK  10 active torsions:
REMARK  status: ('A' for Active; 'I' for Inactive)
REMARK    1  A    between atoms: C_1  and  C_2
REMARK    2  A    between atoms: C_2  and  N_3
REMARK    3  A    between atoms: N_6  and  C_7
REMARK    4  A    between atoms: C_7  and  C_8
REMARK    5  A    between atoms: C_8  and  S_9
REMARK    6  A    between atoms: S_9  and  C_10
REMARK    7  A    between atoms: C_12  and  C_13
REMARK    8  A    between atoms: C_19  and  C_20
REMARK    9  A    between atoms: N_26  and  C_27
REMARK   10  A    between atoms: C_27  and  C_28
REMARK                            x       y       z     vdW  Elec       q    Type
REMARK                         _______ _______ _______ _____ _____    ______ ____
ROOT
ATOM      1  C   UNL     1       5.368   6.193  17.656  0.00  0.00    +0.000 A 
ATOM      2  N   UNL     1       4.638   7.276  17.775  0.00  0.00    +0.000 NA
ATOM      3  C   UNL     1       3.452   6.870  18.334  0.00  0.00    +0.000 A 
ATOM      4  C   UNL     1       3.424   5.483  18.512  0.00  0.00    +0.000 A 
ATOM      5  N   UNL     1       4.714   5.071  18.115  0.00  0.00    +0.000 N 
ENDROOT
BRANCH   3   6
ATOM      6  C   UNL     1       2.381   7.815  18.649  0.00  0.00    +0.000 A 
ATOM      7  C   UNL     1       1.948   7.980  19.971  0.00  0.00    +0.000 A 
ATOM      8  C   UNL     1       1.011   8.971  20.294  0.00  0.00    +0.000 A 
ATOM      9  C   UNL     1       0.503   9.807  19.301  0.00  0.00    +0.000 A 
ATOM     10  C   UNL     1       0.889   9.623  17.978  0.00  0.00    +0.000 A 
ATOM     11  C   UNL     1       1.796   8.611  17.652  0.00  0.00    +0.000 A 
ENDBRANCH   3   6
BRANCH   4  12
ATOM     12  C   UNL     1       2.323   4.605  18.984  0.00  0.00    +0.000 A 
ATOM     13  C   UNL     1       2.041   4.505  20.359  0.00  0.00    +0.000 A 
ATOM     14  C   UNL     1       1.116   3.577  20.850  0.00  0.00    +0.000 A 
ATOM     15  C   UNL     1       0.390   2.784  19.968  0.00  0.00    +0.000 A 
ATOM     16  C   UNL     1       0.611   2.902  18.601  0.00  0.00    +0.000 A 
ATOM     17  C   UNL     1       1.593   3.777  18.120  0.00  0.00    +0.000 A 
ENDBRANCH   4  12
BRANCH   5  18
ATOM     18  C   UNL     1       5.186   3.706  18.283  0.00  0.00    +0.000 C 
ATOM     19  C   UNL     1       4.978   2.892  19.551  0.00  0.00    +0.000 C 
ENDBRANCH   5  18
BRANCH   1  20
ATOM     20  S   UNL     1       6.970   6.210  16.994  0.00  0.00    +0.000 S 
BRANCH  20  21
ATOM     21  C   UNL     1       6.691   5.854  15.232  0.00  0.00    +0.000 C 
BRANCH  21  22
ATOM     22  C   UNL     1       6.618   4.356  14.926  0.00  0.00    +0.000 C 
BRANCH  22  26
ATOM     23  N   UNL     1       4.373   3.356  12.231  0.00  0.00    +0.000 N 
ATOM     24  C   UNL     1       5.593   3.639  12.799  0.00  0.00    +0.000 C 
ATOM     25  O   UNL     1       6.661   3.572  12.202  0.00  0.00    +0.000 OA
ATOM     26  N   UNL     1       5.468   4.006  14.109  0.00  0.00    +0.000 N 
ATOM     27  H   UNL     1       3.564   3.740  12.700  0.00  0.00    +0.000 HD
ATOM     28  H   UNL     1       4.622   3.726  14.590  0.00  0.00    +0.000 HD
BRANCH  23  30
ATOM     29  C   UNL     1       3.210   3.879  10.129  0.00  0.00    +0.000 C 
ATOM     30  C   UNL     1       4.241   3.018  10.832  0.00  0.00    +0.000 C 
ENDBRANCH  23  30
ENDBRANCH  22  26
ENDBRANCH  21  22
ENDBRANCH  20  21
ENDBRANCH   1  20
TORSDOF 8
ENDMDL
MODEL 6
REMARK VINA RESULT:      -7.3      3.576      7.088
REMARK  Name = 
REMARK  10 active torsions:
REMARK  status: ('A' for Active; 'I' for Inactive)
REMARK    1  A    between atoms: C_1  and  C_2
REMARK    2  A    between atoms: C_2  and  N_3
REMARK    3  A    between atoms: N_6  and  C_7
REMARK    4  A    between atoms: C_7  and  C_8
REMARK    5  A    between atoms: C_8  and  S_9
REMARK    6  A    between atoms: S_9  and  C_10
REMARK    7  A    between atoms: C_12  and  C_13
REMARK    8  A    between atoms: C_19  and  C_20
REMARK    9  A    between atoms: N_26  and  C_27
REMARK   10  A    between atoms: C_27  and  C_28
REMARK                            x       y       z     vdW  Elec       q    Type
REMARK                         _______ _______ _______ _____ _____    ______ ____
ROOT
ATOM      1  C   UNL     1       5.825   4.928  17.596  0.00  0.00    +0.000 A 
ATOM      2  N   UNL     1       5.052   3.985  18.080  0.00  0.00    +0.000 NA
ATOM      3  C   UNL     1       3.881   4.607  18.437  0.00  0.00    +0.000 A 
ATOM      4  C   UNL     1       3.954   5.986  18.223  0.00  0.00    +0.000 A 
ATOM      5  N   UNL     1       5.215   6.164  17.617  0.00  0.00    +0.000 N 
ENDROOT
BRANCH   3   6
ATOM      6  C   UNL     1       2.751   3.865  18.995  0.00  0.00    +0.000 A 
ATOM      7  C   UNL     1       2.584   3.767  20.383  0.00  0.00    +0.000 A 
ATOM      8  C   UNL     1       1.439   3.164  20.921  0.00  0.00    +0.000 A 
ATOM      9  C   UNL     1       0.450   2.659  20.078  0.00  0.00    +0.000 A 
ATOM     10  C   UNL     1       0.625   2.708  18.700  0.00  0.00    +0.000 A 
ATOM     11  C   UNL     1       1.784   3.278  18.165  0.00  0.00    +0.000 A 
ENDBRANCH   3   6
BRANCH   4  12
ATOM     12  C   UNL     1       2.975   7.055  18.553  0.00  0.00    +0.000 A 
ATOM     13  C   UNL     1       2.614   8.005  17.581  0.00  0.00    +0.000 A 
ATOM     14  C   UNL     1       1.815   9.109  17.898  0.00  0.00    +0.000 A 
ATOM     15  C   UNL     1       1.290   9.244  19.179  0.00  0.00    +0.000 A 
ATOM     16  C   UNL     1       1.589   8.289  20.144  0.00  0.00    +0.000 A 
ATOM     17  C   UNL     1       2.451   7.228  19.842  0.00  0.00    +0.000 A 
ENDBRANCH   4  12
BRANCH   5  18
ATOM     18  C   UNL     1       5.652   7.440  17.076  0.00  0.00    +0.000 C 
ATOM     19  C   UNL     1       6.964   8.111  17.454  0.00  0.00    +0.000 C 
ENDBRANCH   5  18
BRANCH   1  20
ATOM     20  S   UNL     1       7.425   4.618  17.007  0.00  0.00    +0.000 S 
BRANCH  20  21
ATOM     21  C   UNL     1       7.371   5.263  15.307  0.00  0.00    +0.000 C 
BRANCH  21  22
ATOM     22  C   UNL     1       6.238   4.661  14.472  0.00  0.00    +0.000 C 
BRANCH  22  26
ATOM     23  N   UNL     1       6.534   2.020  11.973  0.00  0.00    +0.000 N 
ATOM     24  C   UNL     1       5.904   3.051  12.633  0.00  0.00    +0.000 C 
ATOM     25  O   UNL     1       4.781   3.457  12.359  0.00  0.00    +0.000 OA
ATOM     26  N   UNL     1       6.684   3.563  13.631  0.00  0.00    +0.000 N 
ATOM     27  H   UNL     1       7.292   1.572  12.469  0.00  0.00    +0.000 HD
ATOM     28  H   UNL     1       7.681   3.396  13.572  0.00  0.00    +0.000 HD
BRANCH  23  30
ATOM     29  C   UNL     1       6.016  -0.229  11.126  0.00  0.00    +0.000 C 
ATOM     30  C   UNL     1       5.878   1.268  10.928  0.00  0.00    +0.000 C 
ENDBRANCH  23  30
ENDBRANCH  22  26
ENDBRANCH  21  22
ENDBRANCH  20  21
ENDBRANCH   1  20
TORSDOF 8
ENDMDL
MODEL 7
REMARK VINA RESULT:      -7.2      0.501      1.153
REMARK  Name = 
REMARK  10 active torsions:
REMARK  status: ('A' for Active; 'I' for Inactive)
REMARK    1  A    between atoms: C_1  and  C_2
REMARK    2  A    between atoms: C_2  and  N_3
REMARK    3  A    between atoms: N_6  and  C_7
REMARK    4  A    between atoms: C_7  and  C_8
REMARK    5  A    between atoms: C_8  and  S_9
REMARK    6  A    between atoms: S_9  and  C_10
REMARK    7  A    between atoms: C_12  and  C_13
REMARK    8  A    between atoms: C_19  and  C_20
REMARK    9  A    between atoms: N_26  and  C_27
REMARK   10  A    between atoms: C_27  and  C_28
REMARK                            x       y       z     vdW  Elec       q    Type
REMARK                         _______ _______ _______ _____ _____    ______ ____
ROOT
ATOM      1  C   UNL     1       5.096   6.693  17.308  0.00  0.00    +0.000 A 
ATOM      2  N   UNL     1       4.352   7.740  17.577  0.00  0.00    +0.000 NA
ATOM      3  C   UNL     1       3.257   7.258  18.250  0.00  0.00    +0.000 A 
ATOM      4  C   UNL     1       3.295   5.864  18.349  0.00  0.00    +0.000 A 
ATOM      5  N   UNL     1       4.538   5.523  17.776  0.00  0.00    +0.000 N 
ENDROOT
BRANCH   3   6
ATOM      6  C   UNL     1       2.204   8.144  18.747  0.00  0.00    +0.000 A 
ATOM      7  C   UNL     1       1.515   8.989  17.867  0.00  0.00    +0.000 A 
ATOM      8  C   UNL     1       0.426   9.747  18.315  0.00  0.00    +0.000 A 
ATOM      9  C   UNL     1       0.011   9.663  19.643  0.00  0.00    +0.000 A 
ATOM     10  C   UNL     1       0.714   8.864  20.537  0.00  0.00    +0.000 A 
ATOM     11  C   UNL     1       1.823   8.136  20.098  0.00  0.00    +0.000 A 
ENDBRANCH   3   6
BRANCH   4  12
ATOM     12  C   UNL     1       2.287   4.920  18.898  0.00  0.00    +0.000 A 
ATOM     13  C   UNL     1       2.152   4.765  20.290  0.00  0.00    +0.000 A 
ATOM     14  C   UNL     1       1.323   3.780  20.838  0.00  0.00    +0.000 A 
ATOM     15  C   UNL     1       0.547   2.980  20.006  0.00  0.00    +0.000 A 
ATOM     16  C   UNL     1       0.624   3.149  18.629  0.00  0.00    +0.000 A 
ATOM     17  C   UNL     1       1.511   4.084  18.083  0.00  0.00    +0.000 A 
ENDBRANCH   4  12
BRANCH   5  18
ATOM     18  C   UNL     1       5.069   4.171  17.805  0.00  0.00    +0.000 C 
ATOM     19  C   UNL     1       5.113   3.256  16.590  0.00  0.00    +0.000 C 
ENDBRANCH   5  18
BRANCH   1  20
ATOM     20  S   UNL     1       6.603   6.807  16.459  0.00  0.00    +0.000 S 
BRANCH  20  21
ATOM     21  C   UNL     1       7.774   7.296  17.762  0.00  0.00    +0.000 C 
BRANCH  21  22
ATOM     22  C   UNL     1       8.134   8.784  17.719  0.00  0.00    +0.000 C 
BRANCH  22  26
ATOM     23  N   UNL     1       9.761  10.727  20.342  0.00  0.00    +0.000 N 
ATOM     24  C   UNL     1       9.241  10.513  19.087  0.00  0.00    +0.000 C 
ATOM     25  O   UNL     1       9.233  11.353  18.194  0.00  0.00    +0.000 OA
ATOM     26  N   UNL     1       8.738   9.250  18.957  0.00  0.00    +0.000 N 
ATOM     27  H   UNL     1       9.999   9.900  20.872  0.00  0.00    +0.000 HD
ATOM     28  H   UNL     1       8.498   8.757  19.808  0.00  0.00    +0.000 HD
BRANCH  23  30
ATOM     29  C   UNL     1       9.634  12.760  21.718  0.00  0.00    +0.000 C 
ATOM     30  C   UNL     1      10.421  11.964  20.696  0.00  0.00    +0.000 C 
ENDBRANCH  23  30
ENDBRANCH  22  26
ENDBRANCH  21  22
ENDBRANCH  20  21
ENDBRANCH   1  20
TORSDOF 8
ENDMDL
MODEL 8
REMARK VINA RESULT:      -7.2      3.615      5.588
REMARK  Name = 
REMARK  10 active torsions:
REMARK  status: ('A' for Active; 'I' for Inactive)
REMARK    1  A    between atoms: C_1  and  C_2
REMARK    2  A    between atoms: C_2  and  N_3
REMARK    3  A    between atoms: N_6  and  C_7
REMARK    4  A    between atoms: C_7  and  C_8
REMARK    5  A    between atoms: C_8  and  S_9
REMARK    6  A    between atoms: S_9  and  C_10
REMARK    7  A    between atoms: C_12  and  C_13
REMARK    8  A    between atoms: C_19  and  C_20
REMARK    9  A    between atoms: N_26  and  C_27
REMARK   10  A    between atoms: C_27  and  C_28
REMARK                            x       y       z     vdW  Elec       q    Type
REMARK                         _______ _______ _______ _____ _____    ______ ____
ROOT
ATOM      1  C   UNL     1       5.388   6.408  17.754  0.00  0.00    +0.000 A 
ATOM      2  N   UNL     1       4.618   7.464  17.864  0.00  0.00    +0.000 NA
ATOM      3  C   UNL     1       3.434   7.011  18.390  0.00  0.00    +0.000 A 
ATOM      4  C   UNL     1       3.450   5.623  18.555  0.00  0.00    +0.000 A 
ATOM      5  N   UNL     1       4.762   5.259  18.186  0.00  0.00    +0.000 N 
ENDROOT
BRANCH   3   6
ATOM      6  C   UNL     1       2.324   7.916  18.687  0.00  0.00    +0.000 A 
ATOM      7  C   UNL     1       1.869   8.071  20.003  0.00  0.00    +0.000 A 
ATOM      8  C   UNL     1       0.891   9.026  20.310  0.00  0.00    +0.000 A 
ATOM      9  C   UNL     1       0.363   9.837  19.307  0.00  0.00    +0.000 A 
ATOM     10  C   UNL     1       0.772   9.662  17.990  0.00  0.00    +0.000 A 
ATOM     11  C   UNL     1       1.722   8.685  17.679  0.00  0.00    +0.000 A 
ENDBRANCH   3   6
BRANCH   4  12
ATOM     12  C   UNL     1       2.369   4.703  18.993  0.00  0.00    +0.000 A 
ATOM     13  C   UNL     1       2.057   4.580  20.359  0.00  0.00    +0.000 A 
ATOM     14  C   UNL     1       1.152   3.617  20.819  0.00  0.00    +0.000 A 
ATOM     15  C   UNL     1       0.477   2.807  19.912  0.00  0.00    +0.000 A 
ATOM     16  C   UNL     1       0.728   2.945  18.553  0.00  0.00    +0.000 A 
ATOM     17  C   UNL     1       1.690   3.857  18.104  0.00  0.00    +0.000 A 
ENDBRANCH   4  12
BRANCH   5  18
ATOM     18  C   UNL     1       5.277   3.910  18.353  0.00  0.00    +0.000 C 
ATOM     19  C   UNL     1       5.033   3.062  19.592  0.00  0.00    +0.000 C 
ENDBRANCH   5  18
BRANCH   1  20
ATOM     20  S   UNL     1       7.004   6.486  17.131  0.00  0.00    +0.000 S 
BRANCH  20  21
ATOM     21  C   UNL     1       7.161   4.933  16.196  0.00  0.00    +0.000 C 
BRANCH  21  22
ATOM     22  C   UNL     1       6.915   5.109  14.695  0.00  0.00    +0.000 C 
BRANCH  22  26
ATOM     23  N   UNL     1       5.521   2.543  12.508  0.00  0.00    +0.000 N 
ATOM     24  C   UNL     1       6.346   3.597  12.830  0.00  0.00    +0.000 C 
ATOM     25  O   UNL     1       7.146   4.105  12.054  0.00  0.00    +0.000 OA
ATOM     26  N   UNL     1       6.159   4.008  14.120  0.00  0.00    +0.000 N 
ATOM     27  H   UNL     1       4.707   2.420  13.094  0.00  0.00    +0.000 HD
ATOM     28  H   UNL     1       5.735   3.348  14.759  0.00  0.00    +0.000 HD
BRANCH  23  30
ATOM     29  C   UNL     1       6.558   0.940  10.960  0.00  0.00    +0.000 C 
ATOM     30  C   UNL     1       5.481   1.984  11.176  0.00  0.00    +0.000 C 
ENDBRANCH  23  30
ENDBRANCH  22  26
ENDBRANCH  21  22
ENDBRANCH  20  21
ENDBRANCH   1  20
TORSDOF 8
ENDMDL
MODEL 9
REMARK VINA RESULT:      -7.1      0.590      1.205
REMARK  Name = 
REMARK  10 active torsions:
REMARK  status: ('A' for Active; 'I' for Inactive)
REMARK    1  A    between atoms: C_1  and  C_2
REMARK    2  A    between atoms: C_2  and  N_3
REMARK    3  A    between atoms: N_6  and  C_7
REMARK    4  A    between atoms: C_7  and  C_8
REMARK    5  A    between atoms: C_8  and  S_9
REMARK    6  A    between atoms: S_9  and  C_10
REMARK    7  A    between atoms: C_12  and  C_13
REMARK    8  A    between atoms: C_19  and  C_20
REMARK    9  A    between atoms: N_26  and  C_27
REMARK   10  A    between atoms: C_27  and  C_28
REMARK                            x       y       z     vdW  Elec       q    Type
REMARK                         _______ _______ _______ _____ _____    ______ ____
ROOT
ATOM      1  C   UNL     1       5.218   6.761  17.415  0.00  0.00    +0.000 A 
ATOM      2  N   UNL     1       4.397   7.755  17.656  0.00  0.00    +0.000 NA
ATOM      3  C   UNL     1       3.320   7.202  18.304  0.00  0.00    +0.000 A 
ATOM      4  C   UNL     1       3.452   5.815  18.414  0.00  0.00    +0.000 A 
ATOM      5  N   UNL     1       4.730   5.558  17.876  0.00  0.00    +0.000 N 
ENDROOT
BRANCH   3   6
ATOM      6  C   UNL     1       2.195   8.015  18.767  0.00  0.00    +0.000 A 
ATOM      7  C   UNL     1       1.832   8.017  20.120  0.00  0.00    +0.000 A 
ATOM      8  C   UNL     1       0.838   8.886  20.588  0.00  0.00    +0.000 A 
ATOM      9  C   UNL     1       0.201   9.762  19.710  0.00  0.00    +0.000 A 
ATOM     10  C   UNL     1       0.519   9.737  18.357  0.00  0.00    +0.000 A 
ATOM     11  C   UNL     1       1.486   8.845  17.885  0.00  0.00    +0.000 A 
ENDBRANCH   3   6
BRANCH   4  12
ATOM     12  C   UNL     1       2.498   4.806  18.943  0.00  0.00    +0.000 A 
ATOM     13  C   UNL     1       1.712   4.046  18.058  0.00  0.00    +0.000 A 
ATOM     14  C   UNL     1       0.700   3.198  18.523  0.00  0.00    +0.000 A 
ATOM     15  C   UNL     1       0.505   3.029  19.889  0.00  0.00    +0.000 A 
ATOM     16  C   UNL     1       1.304   3.729  20.785  0.00  0.00    +0.000 A 
ATOM     17  C   UNL     1       2.264   4.634  20.315  0.00  0.00    +0.000 A 
ENDBRANCH   4  12
BRANCH   5  18
ATOM     18  C   UNL     1       5.353   4.246  17.929  0.00  0.00    +0.000 C 
ATOM     19  C   UNL     1       5.458   3.313  16.731  0.00  0.00    +0.000 C 
ENDBRANCH   5  18
BRANCH   1  20
ATOM     20  S   UNL     1       6.736   6.975  16.605  0.00  0.00    +0.000 S 
BRANCH  20  21
ATOM     21  C   UNL     1       7.863   7.439  17.956  0.00  0.00    +0.000 C 
BRANCH  21  22
ATOM     22  C   UNL     1       8.292   8.907  17.903  0.00  0.00    +0.000 C 
BRANCH  22  26
ATOM     23  N   UNL     1       9.827  10.846  20.584  0.00  0.00    +0.000 N 
ATOM     24  C   UNL     1       9.260  10.660  19.344  0.00  0.00    +0.000 C 
ATOM     25  O   UNL     1       9.093  11.555  18.524  0.00  0.00    +0.000 OA
ATOM     26  N   UNL     1       8.909   9.355  19.140  0.00  0.00    +0.000 N 
ATOM     27  H   UNL     1      10.197  10.019  21.032  0.00  0.00    +0.000 HD
ATOM     28  H   UNL     1       8.785   8.775  19.960  0.00  0.00    +0.000 HD
BRANCH  23  30
ATOM     29  C   UNL     1       9.404  12.854  21.938  0.00  0.00    +0.000 C 
ATOM     30  C   UNL     1      10.349  12.128  21.001  0.00  0.00    +0.000 C 
ENDBRANCH  23  30
ENDBRANCH  22  26
ENDBRANCH  21  22
ENDBRANCH  20  21
ENDBRANCH   1  20
TORSDOF 8
ENDMDL
