MODEL 1
REMARK VINA RESULT:      -8.7      0.000      0.000
REMARK  Name = 
REMARK  8 active torsions:
REMARK  status: ('A' for Active; 'I' for Inactive)
REMARK    1  A    between atoms: C_1  and  C_2
REMARK    2  A    between atoms: C_2  and  C_3
REMARK    3  A    between atoms: C_9  and  C_10
REMARK    4  A    between atoms: C_10  and  C_11
REMARK    5  A    between atoms: N_13  and  C_14
REMARK    6  A    between atoms: C_18  and  C_19
REMARK    7  A    between atoms: C_19  and  O_21
REMARK    8  A    between atoms: O_21  and  C_22
REMARK                            x       y       z     vdW  Elec       q    Type
REMARK                         _______ _______ _______ _____ _____    ______ ____
ROOT
ATOM      1  C   UNL     1       4.372   4.903  18.123  0.00  0.00    +0.000 C 
ATOM      2  O   UNL     1       5.011   5.133  19.152  0.00  0.00    +0.000 OA
ATOM      3  N   UNL     1       3.142   5.463  17.811  0.00  0.00    +0.000 N 
ATOM      4  H   UNL     1       2.494   4.880  17.294  0.00  0.00    +0.000 HD
ENDROOT
BRANCH   3   5
ATOM      5  C   UNL     1       2.582   6.382  18.676  0.00  0.00    +0.000 A 
ATOM      6  S   UNL     1       2.721   7.995  18.112  0.00  0.00    +0.000 S 
ATOM      7  C   UNL     1       1.718   8.513  19.340  0.00  0.00    +0.000 A 
ATOM      8  C   UNL     1       1.386   7.539  20.242  0.00  0.00    +0.000 A 
ATOM      9  C   UNL     1       1.906   6.258  19.887  0.00  0.00    +0.000 A 
ATOM     10  C   UNL     1       0.600   8.115  21.365  0.00  0.00    +0.000 C 
ATOM     11  C   UNL     1       0.176   9.507  20.800  0.00  0.00    +0.000 C 
ATOM     12  C   UNL     1       1.171   9.853  19.652  0.00  0.00    +0.000 C 
BRANCH   9  13
ATOM     13  C   UNL     1       1.818   5.015  20.651  0.00  0.00    +0.000 C 
ATOM     14  O   UNL     1       2.592   4.717  21.556  0.00  0.00    +0.000 OA
BRANCH  13  15
ATOM     15  O   UNL     1       0.743   4.247  20.292  0.00  0.00    +0.000 OA
ATOM     16  C   UNL     1       1.103   2.990  19.718  0.00  0.00    +0.000 C 
ENDBRANCH  13  15
ENDBRANCH   9  13
ENDBRANCH   3   5
BRANCH   1  17
ATOM     17  C   UNL     1       4.877   3.922  17.086  0.00  0.00    +0.000 C 
BRANCH  17  24
ATOM     18  C   UNL     1       5.925   3.393  12.421  0.00  0.00    +0.000 A 
ATOM     19  C   UNL     1       7.000   4.226  12.065  0.00  0.00    +0.000 A 
ATOM     20  C   UNL     1       7.639   5.027  13.015  0.00  0.00    +0.000 A 
ATOM     21  C   UNL     1       7.136   4.979  14.312  0.00  0.00    +0.000 A 
ATOM     22  O   UNL     1       7.601   5.718  15.352  0.00  0.00    +0.000 OA
ATOM     23  C   UNL     1       6.842   5.406  16.428  0.00  0.00    +0.000 A 
ATOM     24  C   UNL     1       5.871   4.471  16.111  0.00  0.00    +0.000 A 
ATOM     25  C   UNL     1       6.073   4.179  14.722  0.00  0.00    +0.000 A 
ATOM     26  C   UNL     1       5.479   3.343  13.757  0.00  0.00    +0.000 A 
BRANCH  18  28
ATOM     27  C   UNL     1       3.863   3.282  11.032  0.00  0.00    +0.000 C 
ATOM     28  C   UNL     1       5.189   2.611  11.363  0.00  0.00    +0.000 C 
ENDBRANCH  18  28
ENDBRANCH  17  24
ENDBRANCH   1  17
TORSDOF 6
ENDMDL
MODEL 2
REMARK VINA RESULT:      -7.5      3.337      8.290
REMARK  Name = 
REMARK  8 active torsions:
REMARK  status: ('A' for Active; 'I' for Inactive)
REMARK    1  A    between atoms: C_1  and  C_2
REMARK    2  A    between atoms: C_2  and  C_3
REMARK    3  A    between atoms: C_9  and  C_10
REMARK    4  A    between atoms: C_10  and  C_11
REMARK    5  A    between atoms: N_13  and  C_14
REMARK    6  A    between atoms: C_18  and  C_19
REMARK    7  A    between atoms: C_19  and  O_21
REMARK    8  A    between atoms: O_21  and  C_22
REMARK                            x       y       z     vdW  Elec       q    Type
REMARK                         _______ _______ _______ _____ _____    ______ ____
ROOT
ATOM      1  C   UNL     1       2.178   7.955  18.585  0.00  0.00    +0.000 C 
ATOM      2  O   UNL     1       1.994   7.722  19.782  0.00  0.00    +0.000 OA
ATOM      3  N   UNL     1       2.653   7.035  17.662  0.00  0.00    +0.000 N 
ATOM      4  H   UNL     1       3.242   7.398  16.919  0.00  0.00    +0.000 HD
ENDROOT
BRANCH   3   5
ATOM      5  C   UNL     1       2.911   5.742  18.070  0.00  0.00    +0.000 A 
ATOM      6  S   UNL     1       1.510   4.754  18.070  0.00  0.00    +0.000 S 
ATOM      7  C   UNL     1       2.455   3.410  18.361  0.00  0.00    +0.000 A 
ATOM      8  C   UNL     1       3.774   3.692  18.591  0.00  0.00    +0.000 A 
ATOM      9  C   UNL     1       4.076   5.080  18.449  0.00  0.00    +0.000 A 
ATOM     10  C   UNL     1       4.513   2.456  18.966  0.00  0.00    +0.000 C 
ATOM     11  C   UNL     1       3.519   1.329  18.541  0.00  0.00    +0.000 C 
ATOM     12  C   UNL     1       2.104   1.976  18.465  0.00  0.00    +0.000 C 
BRANCH   9  13
ATOM     13  C   UNL     1       5.353   5.746  18.696  0.00  0.00    +0.000 C 
ATOM     14  O   UNL     1       6.061   5.518  19.672  0.00  0.00    +0.000 OA
BRANCH  13  15
ATOM     15  O   UNL     1       5.704   6.607  17.691  0.00  0.00    +0.000 OA
ATOM     16  C   UNL     1       6.771   6.127  16.872  0.00  0.00    +0.000 C 
ENDBRANCH  13  15
ENDBRANCH   9  13
ENDBRANCH   3   5
BRANCH   1  17
ATOM     17  C   UNL     1       1.926   9.330  18.004  0.00  0.00    +0.000 C 
BRANCH  17  24
ATOM     18  C   UNL     1      -2.631  10.771  17.456  0.00  0.00    +0.000 A 
ATOM     19  C   UNL     1      -3.025  11.569  18.545  0.00  0.00    +0.000 A 
ATOM     20  C   UNL     1      -2.131  11.882  19.572  0.00  0.00    +0.000 A 
ATOM     21  C   UNL     1      -0.853  11.338  19.475  0.00  0.00    +0.000 A 
ATOM     22  O   UNL     1       0.131  11.498  20.397  0.00  0.00    +0.000 OA
ATOM     23  C   UNL     1       1.204  10.801  19.955  0.00  0.00    +0.000 A 
ATOM     24  C   UNL     1       0.939  10.173  18.750  0.00  0.00    +0.000 A 
ATOM     25  C   UNL     1      -0.409  10.538  18.425  0.00  0.00    +0.000 A 
ATOM     26  C   UNL     1      -1.313  10.279  17.377  0.00  0.00    +0.000 A 
BRANCH  18  28
ATOM     27  C   UNL     1      -2.934   9.844  15.166  0.00  0.00    +0.000 C 
ATOM     28  C   UNL     1      -3.639  10.367  16.411  0.00  0.00    +0.000 C 
ENDBRANCH  18  28
ENDBRANCH  17  24
ENDBRANCH   1  17
TORSDOF 6
ENDMDL
MODEL 3
REMARK VINA RESULT:      -7.3      3.090      8.072
REMARK  Name = 
REMARK  8 active torsions:
REMARK  status: ('A' for Active; 'I' for Inactive)
REMARK    1  A    between atoms: C_1  and  C_2
REMARK    2  A    between atoms: C_2  and  C_3
REMARK    3  A    between atoms: C_9  and  C_10
REMARK    4  A    between atoms: C_10  and  C_11
REMARK    5  A    between atoms: N_13  and  C_14
REMARK    6  A    between atoms: C_18  and  C_19
REMARK    7  A    between atoms: C_19  and  O_21
REMARK    8  A    between atoms: O_21  and  C_22
REMARK                            x       y       z     vdW  Elec       q    Type
REMARK                         _______ _______ _______ _____ _____    ______ ____
ROOT
ATOM      1  C   UNL     1       2.038   8.023  19.102  0.00  0.00    +0.000 C 
ATOM      2  O   UNL     1       1.985   8.540  17.984  0.00  0.00    +0.000 OA
ATOM      3  N   UNL     1       2.692   6.836  19.397  0.00  0.00    +0.000 N 
ATOM      4  H   UNL     1       2.274   6.252  20.113  0.00  0.00    +0.000 HD
ENDROOT
BRANCH   3   5
ATOM      5  C   UNL     1       3.379   6.180  18.396  0.00  0.00    +0.000 A 
ATOM      6  S   UNL     1       4.724   7.073  17.819  0.00  0.00    +0.000 S 
ATOM      7  C   UNL     1       5.221   5.752  16.927  0.00  0.00    +0.000 A 
ATOM      8  C   UNL     1       4.341   4.704  16.941  0.00  0.00    +0.000 A 
ATOM      9  C   UNL     1       3.218   4.936  17.791  0.00  0.00    +0.000 A 
ATOM     10  C   UNL     1       4.801   3.627  16.023  0.00  0.00    +0.000 C 
ATOM     11  C   UNL     1       6.288   4.023  15.759  0.00  0.00    +0.000 C 
ATOM     12  C   UNL     1       6.419   5.541  16.084  0.00  0.00    +0.000 C 
BRANCH   9  13
ATOM     13  C   UNL     1       2.053   4.076  17.986  0.00  0.00    +0.000 C 
ATOM     14  O   UNL     1       1.130   3.988  17.181  0.00  0.00    +0.000 OA
BRANCH  13  15
ATOM     15  O   UNL     1       2.130   3.331  19.133  0.00  0.00    +0.000 OA
ATOM     16  C   UNL     1       1.052   3.564  20.040  0.00  0.00    +0.000 C 
ENDBRANCH  13  15
ENDBRANCH   9  13
ENDBRANCH   3   5
BRANCH   1  17
ATOM     17  C   UNL     1       1.335   8.645  20.290  0.00  0.00    +0.000 C 
BRANCH  17  24
ATOM     18  C   UNL     1      -2.113  10.494  17.492  0.00  0.00    +0.000 A 
ATOM     19  C   UNL     1      -2.252  11.872  17.735  0.00  0.00    +0.000 A 
ATOM     20  C   UNL     1      -1.427  12.531  18.649  0.00  0.00    +0.000 A 
ATOM     21  C   UNL     1      -0.491  11.750  19.323  0.00  0.00    +0.000 A 
ATOM     22  O   UNL     1       0.363  12.209  20.273  0.00  0.00    +0.000 OA
ATOM     23  C   UNL     1       1.087  11.148  20.698  0.00  0.00    +0.000 A 
ATOM     24  C   UNL     1       0.717   9.985  20.044  0.00  0.00    +0.000 A 
ATOM     25  C   UNL     1      -0.311  10.383  19.127  0.00  0.00    +0.000 A 
ATOM     26  C   UNL     1      -1.121   9.752  18.164  0.00  0.00    +0.000 A 
BRANCH  18  28
ATOM     27  C   UNL     1      -2.868  10.233  15.134  0.00  0.00    +0.000 C 
ATOM     28  C   UNL     1      -3.077   9.786  16.575  0.00  0.00    +0.000 C 
ENDBRANCH  18  28
ENDBRANCH  17  24
ENDBRANCH   1  17
TORSDOF 6
ENDMDL
MODEL 4
REMARK VINA RESULT:      -7.3      3.250      8.196
REMARK  Name = 
REMARK  8 active torsions:
REMARK  status: ('A' for Active; 'I' for Inactive)
REMARK    1  A    between atoms: C_1  and  C_2
REMARK    2  A    between atoms: C_2  and  C_3
REMARK    3  A    between atoms: C_9  and  C_10
REMARK    4  A    between atoms: C_10  and  C_11
REMARK    5  A    between atoms: N_13  and  C_14
REMARK    6  A    between atoms: C_18  and  C_19
REMARK    7  A    between atoms: C_19  and  O_21
REMARK    8  A    between atoms: O_21  and  C_22
REMARK                            x       y       z     vdW  Elec       q    Type
REMARK                         _______ _______ _______ _____ _____    ______ ____
ROOT
ATOM      1  C   UNL     1       1.952   8.350  18.277  0.00  0.00    +0.000 C 
ATOM      2  O   UNL     1       1.262   7.731  17.464  0.00  0.00    +0.000 OA
ATOM      3  N   UNL     1       2.674   7.769  19.309  0.00  0.00    +0.000 N 
ATOM      4  H   UNL     1       2.750   8.302  20.168  0.00  0.00    +0.000 HD
ENDROOT
BRANCH   3   5
ATOM      5  C   UNL     1       2.676   6.395  19.440  0.00  0.00    +0.000 A 
ATOM      6  S   UNL     1       1.472   5.830  20.522  0.00  0.00    +0.000 S 
ATOM      7  C   UNL     1       1.794   4.258  20.064  0.00  0.00    +0.000 A 
ATOM      8  C   UNL     1       2.866   4.128  19.223  0.00  0.00    +0.000 A 
ATOM      9  C   UNL     1       3.431   5.385  18.849  0.00  0.00    +0.000 A 
ATOM     10  C   UNL     1       3.158   2.692  18.970  0.00  0.00    +0.000 C 
ATOM     11  C   UNL     1       1.856   1.991  19.472  0.00  0.00    +0.000 C 
ATOM     12  C   UNL     1       1.156   2.980  20.452  0.00  0.00    +0.000 C 
BRANCH   9  13
ATOM     13  C   UNL     1       4.621   5.623  18.036  0.00  0.00    +0.000 C 
ATOM     14  O   UNL     1       5.705   5.084  18.243  0.00  0.00    +0.000 OA
BRANCH  13  15
ATOM     15  O   UNL     1       4.383   6.462  16.980  0.00  0.00    +0.000 OA
ATOM     16  C   UNL     1       5.240   6.232  15.861  0.00  0.00    +0.000 C 
ENDBRANCH  13  15
ENDBRANCH   9  13
ENDBRANCH   3   5
BRANCH   1  17
ATOM     17  C   UNL     1       2.046   9.860  18.241  0.00  0.00    +0.000 C 
BRANCH  17  24
ATOM     18  C   UNL     1      -2.630  10.550  17.346  0.00  0.00    +0.000 A 
ATOM     19  C   UNL     1      -3.206  11.351  18.347  0.00  0.00    +0.000 A 
ATOM     20  C   UNL     1      -2.435  11.865  19.393  0.00  0.00    +0.000 A 
ATOM     21  C   UNL     1      -1.087  11.517  19.405  0.00  0.00    +0.000 A 
ATOM     22  O   UNL     1      -0.199  11.888  20.363  0.00  0.00    +0.000 OA
ATOM     23  C   UNL     1       0.991  11.334  20.032  0.00  0.00    +0.000 A 
ATOM     24  C   UNL     1       0.900  10.592  18.867  0.00  0.00    +0.000 A 
ATOM     25  C   UNL     1      -0.464  10.724  18.445  0.00  0.00    +0.000 A 
ATOM     26  C   UNL     1      -1.251  10.260  17.374  0.00  0.00    +0.000 A 
BRANCH  18  28
ATOM     27  C   UNL     1      -2.909  10.175  14.900  0.00  0.00    +0.000 C 
ATOM     28  C   UNL     1      -3.498   9.926  16.282  0.00  0.00    +0.000 C 
ENDBRANCH  18  28
ENDBRANCH  17  24
ENDBRANCH   1  17
TORSDOF 6
ENDMDL
MODEL 5
REMARK VINA RESULT:      -7.2      3.337      6.061
REMARK  Name = 
REMARK  8 active torsions:
REMARK  status: ('A' for Active; 'I' for Inactive)
REMARK    1  A    between atoms: C_1  and  C_2
REMARK    2  A    between atoms: C_2  and  C_3
REMARK    3  A    between atoms: C_9  and  C_10
REMARK    4  A    between atoms: C_10  and  C_11
REMARK    5  A    between atoms: N_13  and  C_14
REMARK    6  A    between atoms: C_18  and  C_19
REMARK    7  A    between atoms: C_19  and  O_21
REMARK    8  A    between atoms: O_21  and  C_22
REMARK                            x       y       z     vdW  Elec       q    Type
REMARK                         _______ _______ _______ _____ _____    ______ ____
ROOT
ATOM      1  C   UNL     1       0.930   8.247  20.702  0.00  0.00    +0.000 C 
ATOM      2  O   UNL     1      -0.118   7.962  21.287  0.00  0.00    +0.000 OA
ATOM      3  N   UNL     1       1.096   9.334  19.857  0.00  0.00    +0.000 N 
ATOM      4  H   UNL     1       1.723   9.207  19.070  0.00  0.00    +0.000 HD
ENDROOT
BRANCH   3   5
ATOM      5  C   UNL     1       0.042  10.205  19.665  0.00  0.00    +0.000 A 
ATOM      6  S   UNL     1      -0.791   9.924  18.193  0.00  0.00    +0.000 S 
ATOM      7  C   UNL     1      -1.976  11.004  18.655  0.00  0.00    +0.000 A 
ATOM      8  C   UNL     1      -1.703  11.671  19.819  0.00  0.00    +0.000 A 
ATOM      9  C   UNL     1      -0.493  11.234  20.435  0.00  0.00    +0.000 A 
ATOM     10  C   UNL     1      -2.745  12.699  20.086  0.00  0.00    +0.000 C 
ATOM     11  C   UNL     1      -3.890  12.278  19.112  0.00  0.00    +0.000 C 
ATOM     12  C   UNL     1      -3.241  11.403  17.998  0.00  0.00    +0.000 C 
BRANCH   9  13
ATOM     13  C   UNL     1       0.144  11.773  21.635  0.00  0.00    +0.000 C 
ATOM     14  O   UNL     1       0.587  12.916  21.715  0.00  0.00    +0.000 OA
BRANCH  13  15
ATOM     15  O   UNL     1       0.138  10.889  22.681  0.00  0.00    +0.000 OA
ATOM     16  C   UNL     1      -1.160  10.660  23.230  0.00  0.00    +0.000 C 
ENDBRANCH  13  15
ENDBRANCH   9  13
ENDBRANCH   3   5
BRANCH   1  17
ATOM     17  C   UNL     1       2.164   7.381  20.833  0.00  0.00    +0.000 C 
BRANCH  17  24
ATOM     18  C   UNL     1       4.211   5.257  17.033  0.00  0.00    +0.000 A 
ATOM     19  C   UNL     1       3.735   3.942  16.894  0.00  0.00    +0.000 A 
ATOM     20  C   UNL     1       2.768   3.428  17.761  0.00  0.00    +0.000 A 
ATOM     21  C   UNL     1       2.331   4.271  18.780  0.00  0.00    +0.000 A 
ATOM     22  O   UNL     1       1.431   3.930  19.737  0.00  0.00    +0.000 OA
ATOM     23  C   UNL     1       1.291   5.004  20.549  0.00  0.00    +0.000 A 
ATOM     24  C   UNL     1       2.097   6.055  20.143  0.00  0.00    +0.000 A 
ATOM     25  C   UNL     1       2.770   5.578  18.970  0.00  0.00    +0.000 A 
ATOM     26  C   UNL     1       3.707   6.090  18.053  0.00  0.00    +0.000 A 
BRANCH  18  28
ATOM     27  C   UNL     1       6.233   4.607  15.734  0.00  0.00    +0.000 C 
ATOM     28  C   UNL     1       5.324   5.757  16.147  0.00  0.00    +0.000 C 
ENDBRANCH  18  28
ENDBRANCH  17  24
ENDBRANCH   1  17
TORSDOF 6
ENDMDL
MODEL 6
REMARK VINA RESULT:      -7.2      2.704      8.216
REMARK  Name = 
REMARK  8 active torsions:
REMARK  status: ('A' for Active; 'I' for Inactive)
REMARK    1  A    between atoms: C_1  and  C_2
REMARK    2  A    between atoms: C_2  and  C_3
REMARK    3  A    between atoms: C_9  and  C_10
REMARK    4  A    between atoms: C_10  and  C_11
REMARK    5  A    between atoms: N_13  and  C_14
REMARK    6  A    between atoms: C_18  and  C_19
REMARK    7  A    between atoms: C_19  and  O_21
REMARK    8  A    between atoms: O_21  and  C_22
REMARK                            x       y       z     vdW  Elec       q    Type
REMARK                         _______ _______ _______ _____ _____    ______ ____
ROOT
ATOM      1  C   UNL     1       2.227   7.166  19.565  0.00  0.00    +0.000 C 
ATOM      2  O   UNL     1       2.236   7.971  18.631  0.00  0.00    +0.000 OA
ATOM      3  N   UNL     1       2.886   5.946  19.567  0.00  0.00    +0.000 N 
ATOM      4  H   UNL     1       2.435   5.186  20.065  0.00  0.00    +0.000 HD
ENDROOT
BRANCH   3   5
ATOM      5  C   UNL     1       3.653   5.593  18.475  0.00  0.00    +0.000 A 
ATOM      6  S   UNL     1       5.019   6.608  18.267  0.00  0.00    +0.000 S 
ATOM      7  C   UNL     1       5.600   5.587  17.081  0.00  0.00    +0.000 A 
ATOM      8  C   UNL     1       4.740   4.579  16.740  0.00  0.00    +0.000 A 
ATOM      9  C   UNL     1       3.556   4.568  17.538  0.00  0.00    +0.000 A 
ATOM     10  C   UNL     1       5.281   3.800  15.594  0.00  0.00    +0.000 C 
ATOM     11  C   UNL     1       6.775   4.250  15.557  0.00  0.00    +0.000 C 
ATOM     12  C   UNL     1       6.857   5.617  16.300  0.00  0.00    +0.000 C 
BRANCH   9  13
ATOM     13  C   UNL     1       2.395   3.691  17.401  0.00  0.00    +0.000 C 
ATOM     14  O   UNL     1       1.241   4.099  17.314  0.00  0.00    +0.000 OA
BRANCH  13  15
ATOM     15  O   UNL     1       2.738   2.368  17.319  0.00  0.00    +0.000 OA
ATOM     16  C   UNL     1       3.187   1.814  18.556  0.00  0.00    +0.000 C 
ENDBRANCH  13  15
ENDBRANCH   9  13
ENDBRANCH   3   5
BRANCH   1  17
ATOM     17  C   UNL     1       1.433   7.434  20.826  0.00  0.00    +0.000 C 
BRANCH  17  24
ATOM     18  C   UNL     1      -1.305  10.612  18.471  0.00  0.00    +0.000 A 
ATOM     19  C   UNL     1      -1.374  11.821  19.186  0.00  0.00    +0.000 A 
ATOM     20  C   UNL     1      -0.674  11.994  20.383  0.00  0.00    +0.000 A 
ATOM     21  C   UNL     1       0.062  10.903  20.839  0.00  0.00    +0.000 A 
ATOM     22  O   UNL     1       0.768  10.874  21.998  0.00  0.00    +0.000 OA
ATOM     23  C   UNL     1       1.318   9.641  22.094  0.00  0.00    +0.000 A 
ATOM     24  C   UNL     1       0.978   8.848  21.012  0.00  0.00    +0.000 A 
ATOM     25  C   UNL     1       0.163   9.682  20.177  0.00  0.00    +0.000 A 
ATOM     26  C   UNL     1      -0.510   9.550  18.948  0.00  0.00    +0.000 A 
BRANCH  18  28
ATOM     27  C   UNL     1      -3.624  10.570  17.566  0.00  0.00    +0.000 C 
ATOM     28  C   UNL     1      -2.145  10.414  17.236  0.00  0.00    +0.000 C 
ENDBRANCH  18  28
ENDBRANCH  17  24
ENDBRANCH   1  17
TORSDOF 6
ENDMDL
MODEL 7
REMARK VINA RESULT:      -7.2      4.346      7.375
REMARK  Name = 
REMARK  8 active torsions:
REMARK  status: ('A' for Active; 'I' for Inactive)
REMARK    1  A    between atoms: C_1  and  C_2
REMARK    2  A    between atoms: C_2  and  C_3
REMARK    3  A    between atoms: C_9  and  C_10
REMARK    4  A    between atoms: C_10  and  C_11
REMARK    5  A    between atoms: N_13  and  C_14
REMARK    6  A    between atoms: C_18  and  C_19
REMARK    7  A    between atoms: C_19  and  O_21
REMARK    8  A    between atoms: O_21  and  C_22
REMARK                            x       y       z     vdW  Elec       q    Type
REMARK                         _______ _______ _______ _____ _____    ______ ____
ROOT
ATOM      1  C   UNL     1       0.363   9.047  20.981  0.00  0.00    +0.000 C 
ATOM      2  O   UNL     1      -0.656   8.581  21.497  0.00  0.00    +0.000 OA
ATOM      3  N   UNL     1       0.419  10.237  20.271  0.00  0.00    +0.000 N 
ATOM      4  H   UNL     1       1.071  10.273  19.494  0.00  0.00    +0.000 HD
ENDROOT
BRANCH   3   5
ATOM      5  C   UNL     1      -0.723  11.002  20.147  0.00  0.00    +0.000 A 
ATOM      6  S   UNL     1      -1.472  10.833  18.614  0.00  0.00    +0.000 S 
ATOM      7  C   UNL     1      -2.789  11.701  19.160  0.00  0.00    +0.000 A 
ATOM      8  C   UNL     1      -2.632  12.229  20.413  0.00  0.00    +0.000 A 
ATOM      9  C   UNL     1      -1.398  11.850  21.021  0.00  0.00    +0.000 A 
ATOM     10  C   UNL     1      -3.795  13.088  20.765  0.00  0.00    +0.000 C 
ATOM     11  C   UNL     1      -4.852  12.678  19.692  0.00  0.00    +0.000 C 
ATOM     12  C   UNL     1      -4.071  12.042  18.504  0.00  0.00    +0.000 C 
BRANCH   9  13
ATOM     13  C   UNL     1      -0.866  12.288  22.310  0.00  0.00    +0.000 C 
ATOM     14  O   UNL     1      -0.505  11.517  23.195  0.00  0.00    +0.000 OA
BRANCH  13  15
ATOM     15  O   UNL     1      -0.754  13.650  22.402  0.00  0.00    +0.000 OA
ATOM     16  C   UNL     1      -1.294  14.189  23.609  0.00  0.00    +0.000 C 
ENDBRANCH  13  15
ENDBRANCH   9  13
ENDBRANCH   3   5
BRANCH   1  17
ATOM     17  C   UNL     1       1.685   8.313  21.050  0.00  0.00    +0.000 C 
BRANCH  17  24
ATOM     18  C   UNL     1       1.763   3.689  19.728  0.00  0.00    +0.000 A 
ATOM     19  C   UNL     1       2.200   3.569  18.397  0.00  0.00    +0.000 A 
ATOM     20  C   UNL     1       2.581   4.692  17.658  0.00  0.00    +0.000 A 
ATOM     21  C   UNL     1       2.472   5.926  18.294  0.00  0.00    +0.000 A 
ATOM     22  O   UNL     1       2.755   7.123  17.720  0.00  0.00    +0.000 OA
ATOM     23  C   UNL     1       2.503   8.075  18.648  0.00  0.00    +0.000 A 
ATOM     24  C   UNL     1       2.047   7.522  19.833  0.00  0.00    +0.000 A 
ATOM     25  C   UNL     1       2.041   6.105  19.606  0.00  0.00    +0.000 A 
ATOM     26  C   UNL     1       1.712   4.954  20.347  0.00  0.00    +0.000 A 
BRANCH  18  28
ATOM     27  C   UNL     1       1.710   2.528  21.929  0.00  0.00    +0.000 C 
ATOM     28  C   UNL     1       1.266   2.477  20.473  0.00  0.00    +0.000 C 
ENDBRANCH  18  28
ENDBRANCH  17  24
ENDBRANCH   1  17
TORSDOF 6
ENDMDL
MODEL 8
REMARK VINA RESULT:      -7.1      2.959      5.074
REMARK  Name = 
REMARK  8 active torsions:
REMARK  status: ('A' for Active; 'I' for Inactive)
REMARK    1  A    between atoms: C_1  and  C_2
REMARK    2  A    between atoms: C_2  and  C_3
REMARK    3  A    between atoms: C_9  and  C_10
REMARK    4  A    between atoms: C_10  and  C_11
REMARK    5  A    between atoms: N_13  and  C_14
REMARK    6  A    between atoms: C_18  and  C_19
REMARK    7  A    between atoms: C_19  and  O_21
REMARK    8  A    between atoms: O_21  and  C_22
REMARK                            x       y       z     vdW  Elec       q    Type
REMARK                         _______ _______ _______ _____ _____    ______ ____
ROOT
ATOM      1  C   UNL     1       1.506   6.298  20.683  0.00  0.00    +0.000 C 
ATOM      2  O   UNL     1       0.304   6.040  20.583  0.00  0.00    +0.000 OA
ATOM      3  N   UNL     1       2.036   7.573  20.815  0.00  0.00    +0.000 N 
ATOM      4  H   UNL     1       2.936   7.740  20.378  0.00  0.00    +0.000 HD
ENDROOT
BRANCH   3   5
ATOM      5  C   UNL     1       1.180   8.653  20.884  0.00  0.00    +0.000 A 
ATOM      6  S   UNL     1       0.561   8.910  22.462  0.00  0.00    +0.000 S 
ATOM      7  C   UNL     1      -0.104  10.359  21.968  0.00  0.00    +0.000 A 
ATOM      8  C   UNL     1       0.007  10.597  20.625  0.00  0.00    +0.000 A 
ATOM      9  C   UNL     1       0.749   9.586  19.944  0.00  0.00    +0.000 A 
ATOM     10  C   UNL     1      -0.720  11.841  20.256  0.00  0.00    +0.000 C 
ATOM     11  C   UNL     1      -0.951  12.520  21.643  0.00  0.00    +0.000 C 
ATOM     12  C   UNL     1      -0.838  11.401  22.721  0.00  0.00    +0.000 C 
BRANCH   9  13
ATOM     13  C   UNL     1       0.995   9.474  18.508  0.00  0.00    +0.000 C 
ATOM     14  O   UNL     1       0.110   9.531  17.659  0.00  0.00    +0.000 OA
BRANCH  13  15
ATOM     15  O   UNL     1       2.326   9.361  18.206  0.00  0.00    +0.000 OA
ATOM     16  C   UNL     1       2.644   8.194  17.447  0.00  0.00    +0.000 C 
ENDBRANCH  13  15
ENDBRANCH   9  13
ENDBRANCH   3   5
BRANCH   1  17
ATOM     17  C   UNL     1       2.552   5.204  20.632  0.00  0.00    +0.000 C 
BRANCH  17  24
ATOM     18  C   UNL     1       6.370   5.849  17.778  0.00  0.00    +0.000 A 
ATOM     19  C   UNL     1       6.191   5.168  16.561  0.00  0.00    +0.000 A 
ATOM     20  C   UNL     1       5.013   4.466  16.293  0.00  0.00    +0.000 A 
ATOM     21  C   UNL     1       4.052   4.451  17.300  0.00  0.00    +0.000 A 
ATOM     22  O   UNL     1       2.869   3.789  17.234  0.00  0.00    +0.000 OA
ATOM     23  C   UNL     1       2.232   3.999  18.409  0.00  0.00    +0.000 A 
ATOM     24  C   UNL     1       2.984   4.791  19.260  0.00  0.00    +0.000 A 
ATOM     25  C   UNL     1       4.176   5.102  18.525  0.00  0.00    +0.000 A 
ATOM     26  C   UNL     1       5.350   5.844  18.751  0.00  0.00    +0.000 A 
BRANCH  18  28
ATOM     27  C   UNL     1       7.701   7.940  17.541  0.00  0.00    +0.000 C 
ATOM     28  C   UNL     1       7.686   6.517  18.085  0.00  0.00    +0.000 C 
ENDBRANCH  18  28
ENDBRANCH  17  24
ENDBRANCH   1  17
TORSDOF 6
ENDMDL
MODEL 9
REMARK VINA RESULT:      -7.1      4.094      8.337
REMARK  Name = 
REMARK  8 active torsions:
REMARK  status: ('A' for Active; 'I' for Inactive)
REMARK    1  A    between atoms: C_1  and  C_2
REMARK    2  A    between atoms: C_2  and  C_3
REMARK    3  A    between atoms: C_9  and  C_10
REMARK    4  A    between atoms: C_10  and  C_11
REMARK    5  A    between atoms: N_13  and  C_14
REMARK    6  A    between atoms: C_18  and  C_19
REMARK    7  A    between atoms: C_19  and  O_21
REMARK    8  A    between atoms: O_21  and  C_22
REMARK                            x       y       z     vdW  Elec       q    Type
REMARK                         _______ _______ _______ _____ _____    ______ ____
ROOT
ATOM      1  C   UNL     1       0.771   8.137  21.216  0.00  0.00    +0.000 C 
ATOM      2  O   UNL     1      -0.249   7.467  21.042  0.00  0.00    +0.000 OA
ATOM      3  N   UNL     1       2.045   7.762  20.814  0.00  0.00    +0.000 N 
ATOM      4  H   UNL     1       2.814   8.051  21.409  0.00  0.00    +0.000 HD
ENDROOT
BRANCH   3   5
ATOM      5  C   UNL     1       2.213   6.575  20.130  0.00  0.00    +0.000 A 
ATOM      6  S   UNL     1       2.052   5.199  21.140  0.00  0.00    +0.000 S 
ATOM      7  C   UNL     1       2.086   4.207  19.799  0.00  0.00    +0.000 A 
ATOM      8  C   UNL     1       2.348   4.861  18.625  0.00  0.00    +0.000 A 
ATOM      9  C   UNL     1       2.453   6.275  18.792  0.00  0.00    +0.000 A 
ATOM     10  C   UNL     1       2.487   3.889  17.508  0.00  0.00    +0.000 C 
ATOM     11  C   UNL     1       1.879   2.587  18.118  0.00  0.00    +0.000 C 
ATOM     12  C   UNL     1       1.937   2.741  19.667  0.00  0.00    +0.000 C 
BRANCH   9  13
ATOM     13  C   UNL     1       2.800   7.270  17.780  0.00  0.00    +0.000 C 
ATOM     14  O   UNL     1       3.838   7.241  17.125  0.00  0.00    +0.000 OA
BRANCH  13  15
ATOM     15  O   UNL     1       1.816   8.204  17.595  0.00  0.00    +0.000 OA
ATOM     16  C   UNL     1       2.264   9.550  17.764  0.00  0.00    +0.000 C 
ENDBRANCH  13  15
ENDBRANCH   9  13
ENDBRANCH   3   5
BRANCH   1  17
ATOM     17  C   UNL     1       0.726   9.464  21.943  0.00  0.00    +0.000 C 
BRANCH  17  24
ATOM     18  C   UNL     1      -1.869  10.611  18.059  0.00  0.00    +0.000 A 
ATOM     19  C   UNL     1      -1.654  11.956  17.708  0.00  0.00    +0.000 A 
ATOM     20  C   UNL     1      -0.758  12.754  18.422  0.00  0.00    +0.000 A 
ATOM     21  C   UNL     1      -0.121  12.161  19.509  0.00  0.00    +0.000 A 
ATOM     22  O   UNL     1       0.746  12.793  20.340  0.00  0.00    +0.000 OA
ATOM     23  C   UNL     1       1.125  11.891  21.276  0.00  0.00    +0.000 A 
ATOM     24  C   UNL     1       0.510  10.666  21.078  0.00  0.00    +0.000 A 
ATOM     25  C   UNL     1      -0.298  10.838  19.906  0.00  0.00    +0.000 A 
ATOM     26  C   UNL     1      -1.168  10.039  19.140  0.00  0.00    +0.000 A 
BRANCH  18  28
ATOM     27  C   UNL     1      -2.815  10.023  15.833  0.00  0.00    +0.000 C 
ATOM     28  C   UNL     1      -2.912   9.798  17.336  0.00  0.00    +0.000 C 
ENDBRANCH  18  28
ENDBRANCH  17  24
ENDBRANCH   1  17
TORSDOF 6
ENDMDL
