MODEL 1
REMARK VINA RESULT:      -7.4      0.000      0.000
REMARK  Name = 
REMARK  12 active torsions:
REMARK  status: ('A' for Active; 'I' for Inactive)
REMARK    1  A    between atoms: C_1  and  O_2
REMARK    2  A    between atoms: O_2  and  C_3
REMARK    3  A    between atoms: C_6  and  C_7
REMARK    4  A    between atoms: C_7  and  N_8
REMARK    5  A    between atoms: N_8  and  C_9
REMARK    6  A    between atoms: N_8  and  C_18
REMARK    7  A    between atoms: C_9  and  C_10
REMARK    8  A    between atoms: C_10  and  C_11
REMARK    9  A    between atoms: C_18  and  C_19
REMARK   10  A    between atoms: C_22  and  O_23
REMARK   11  A    between atoms: O_23  and  C_24
REMARK   12  A    between atoms: C_25  and  O_26
REMARK                            x       y       z     vdW  Elec       q    Type
REMARK                         _______ _______ _______ _____ _____    ______ ____
ROOT
ATOM      1  N   UNL     1       2.545   8.034  17.902  0.00  0.00    +0.000 NA
ENDROOT
BRANCH   1   2
ATOM      2  C   UNL     1       2.143   7.390  19.178  0.00  0.00    +0.000 C 
BRANCH   2   6
ATOM      3  C   UNL     1       2.264   3.068  19.196  0.00  0.00    +0.000 A 
ATOM      4  C   UNL     1       1.925   3.745  18.024  0.00  0.00    +0.000 A 
ATOM      5  C   UNL     1       1.815   5.142  18.014  0.00  0.00    +0.000 A 
ATOM      6  C   UNL     1       2.023   5.877  19.190  0.00  0.00    +0.000 A 
ATOM      7  C   UNL     1       2.287   5.177  20.377  0.00  0.00    +0.000 A 
ATOM      8  C   UNL     1       2.405   3.785  20.382  0.00  0.00    +0.000 A 
BRANCH   3  10
ATOM      9  C   UNL     1       3.638   1.291  18.492  0.00  0.00    +0.000 C 
ATOM     10  O   UNL     1       2.413   1.711  19.093  0.00  0.00    +0.000 OA
ENDBRANCH   3  10
ENDBRANCH   2   6
ENDBRANCH   1   2
BRANCH   1  11
ATOM     11  C   UNL     1       1.969   9.405  17.814  0.00  0.00    +0.000 C 
BRANCH  11  12
ATOM     12  C   UNL     1       0.965   9.746  18.940  0.00  0.00    +0.000 C 
BRANCH  12  13
ATOM     13  C   UNL     1      -0.435  10.146  18.520  0.00  0.00    +0.000 A 
ATOM     14  C   UNL     1      -1.090  11.152  19.255  0.00  0.00    +0.000 A 
ATOM     15  C   UNL     1      -2.366  11.593  18.898  0.00  0.00    +0.000 A 
ATOM     16  C   UNL     1      -2.991  11.043  17.786  0.00  0.00    +0.000 A 
ATOM     17 BR   UNL     1      -4.714  11.645  17.287  0.00  0.00    +0.000 Br
ATOM     18  C   UNL     1      -2.357  10.064  17.032  0.00  0.00    +0.000 A 
ATOM     19  C   UNL     1      -1.077   9.618  17.394  0.00  0.00    +0.000 A 
ENDBRANCH  12  13
ENDBRANCH  11  12
ENDBRANCH   1  11
BRANCH   1  20
ATOM     20  C   UNL     1       4.031   8.102  17.853  0.00  0.00    +0.000 C 
BRANCH  20  21
ATOM     21  C   UNL     1       4.711   6.928  17.178  0.00  0.00    +0.000 A 
ATOM     22  C   UNL     1       4.766   6.827  15.782  0.00  0.00    +0.000 A 
ATOM     23  C   UNL     1       5.382   5.728  15.174  0.00  0.00    +0.000 A 
ATOM     24  C   UNL     1       5.964   4.716  15.945  0.00  0.00    +0.000 A 
ATOM     25  C   UNL     1       5.915   4.822  17.335  0.00  0.00    +0.000 A 
ATOM     26  C   UNL     1       5.316   5.926  17.948  0.00  0.00    +0.000 A 
BRANCH  24  27
ATOM     27  O   UNL     1       6.452   3.657  15.229  0.00  0.00    +0.000 OA
ATOM     28  C   UNL     1       6.304   3.715  13.815  0.00  0.00    +0.000 C 
ENDBRANCH  24  27
BRANCH  25  29
ATOM     29  O   UNL     1       6.364   3.848  18.180  0.00  0.00    +0.000 OA
ATOM     30  H   UNL     1       7.241   3.593  17.849  0.00  0.00    +0.000 HD
ENDBRANCH  25  29
ENDBRANCH  20  21
ENDBRANCH   1  20
TORSDOF 10
ENDMDL
MODEL 2
REMARK VINA RESULT:      -7.3      4.988      6.895
REMARK  Name = 
REMARK  12 active torsions:
REMARK  status: ('A' for Active; 'I' for Inactive)
REMARK    1  A    between atoms: C_1  and  O_2
REMARK    2  A    between atoms: O_2  and  C_3
REMARK    3  A    between atoms: C_6  and  C_7
REMARK    4  A    between atoms: C_7  and  N_8
REMARK    5  A    between atoms: N_8  and  C_9
REMARK    6  A    between atoms: N_8  and  C_18
REMARK    7  A    between atoms: C_9  and  C_10
REMARK    8  A    between atoms: C_10  and  C_11
REMARK    9  A    between atoms: C_18  and  C_19
REMARK   10  A    between atoms: C_22  and  O_23
REMARK   11  A    between atoms: O_23  and  C_24
REMARK   12  A    between atoms: C_25  and  O_26
REMARK                            x       y       z     vdW  Elec       q    Type
REMARK                         _______ _______ _______ _____ _____    ______ ____
ROOT
ATOM      1  N   UNL     1       6.940   6.159  17.938  0.00  0.00    +0.000 NA
ENDROOT
BRANCH   1   2
ATOM      2  C   UNL     1       6.244   5.725  19.175  0.00  0.00    +0.000 C 
BRANCH   2   6
ATOM      3  C   UNL     1       2.352   4.004  18.412  0.00  0.00    +0.000 A 
ATOM      4  C   UNL     1       2.616   5.318  18.021  0.00  0.00    +0.000 A 
ATOM      5  C   UNL     1       3.847   5.916  18.318  0.00  0.00    +0.000 A 
ATOM      6  C   UNL     1       4.824   5.209  19.034  0.00  0.00    +0.000 A 
ATOM      7  C   UNL     1       4.516   3.917  19.486  0.00  0.00    +0.000 A 
ATOM      8  C   UNL     1       3.291   3.319  19.181  0.00  0.00    +0.000 A 
BRANCH   3  10
ATOM      9  C   UNL     1       0.792   2.260  18.663  0.00  0.00    +0.000 C 
ATOM     10  O   UNL     1       1.149   3.483  18.019  0.00  0.00    +0.000 OA
ENDBRANCH   3  10
ENDBRANCH   2   6
ENDBRANCH   1   2
BRANCH   1  11
ATOM     11  C   UNL     1       8.007   7.147  18.266  0.00  0.00    +0.000 C 
BRANCH  11  12
ATOM     12  C   UNL     1       7.716   8.583  17.769  0.00  0.00    +0.000 C 
BRANCH  12  13
ATOM     13  C   UNL     1       8.641   9.681  18.254  0.00  0.00    +0.000 A 
ATOM     14  C   UNL     1       8.962   9.726  19.624  0.00  0.00    +0.000 A 
ATOM     15  C   UNL     1       9.836  10.689  20.130  0.00  0.00    +0.000 A 
ATOM     16  C   UNL     1      10.414  11.608  19.263  0.00  0.00    +0.000 A 
ATOM     17 BR   UNL     1      11.611  12.909  19.939  0.00  0.00    +0.000 Br
ATOM     18  C   UNL     1      10.129  11.573  17.905  0.00  0.00    +0.000 A 
ATOM     19  C   UNL     1       9.247  10.607  17.397  0.00  0.00    +0.000 A 
ENDBRANCH  12  13
ENDBRANCH  11  12
ENDBRANCH   1  11
BRANCH   1  20
ATOM     20  C   UNL     1       7.538   4.962  17.285  0.00  0.00    +0.000 C 
BRANCH  20  21
ATOM     21  C   UNL     1       6.965   4.610  15.928  0.00  0.00    +0.000 A 
ATOM     22  C   UNL     1       5.818   3.815  15.810  0.00  0.00    +0.000 A 
ATOM     23  C   UNL     1       5.311   3.484  14.549  0.00  0.00    +0.000 A 
ATOM     24  C   UNL     1       5.931   3.948  13.383  0.00  0.00    +0.000 A 
ATOM     25  C   UNL     1       7.069   4.747  13.503  0.00  0.00    +0.000 A 
ATOM     26  C   UNL     1       7.569   5.095  14.760  0.00  0.00    +0.000 A 
BRANCH  24  27
ATOM     27  O   UNL     1       5.388   3.478  12.219  0.00  0.00    +0.000 OA
ATOM     28  C   UNL     1       5.895   2.244  11.725  0.00  0.00    +0.000 C 
ENDBRANCH  24  27
BRANCH  25  29
ATOM     29  O   UNL     1       7.805   5.172  12.435  0.00  0.00    +0.000 OA
ATOM     30  H   UNL     1       7.162   5.495  11.781  0.00  0.00    +0.000 HD
ENDBRANCH  25  29
ENDBRANCH  20  21
ENDBRANCH   1  20
TORSDOF 10
ENDMDL
MODEL 3
REMARK VINA RESULT:      -7.2      4.857      6.791
REMARK  Name = 
REMARK  12 active torsions:
REMARK  status: ('A' for Active; 'I' for Inactive)
REMARK    1  A    between atoms: C_1  and  O_2
REMARK    2  A    between atoms: O_2  and  C_3
REMARK    3  A    between atoms: C_6  and  C_7
REMARK    4  A    between atoms: C_7  and  N_8
REMARK    5  A    between atoms: N_8  and  C_9
REMARK    6  A    between atoms: N_8  and  C_18
REMARK    7  A    between atoms: C_9  and  C_10
REMARK    8  A    between atoms: C_10  and  C_11
REMARK    9  A    between atoms: C_18  and  C_19
REMARK   10  A    between atoms: C_22  and  O_23
REMARK   11  A    between atoms: O_23  and  C_24
REMARK   12  A    between atoms: C_25  and  O_26
REMARK                            x       y       z     vdW  Elec       q    Type
REMARK                         _______ _______ _______ _____ _____    ______ ____
ROOT
ATOM      1  N   UNL     1       6.922   6.307  17.885  0.00  0.00    +0.000 NA
ENDROOT
BRANCH   1   2
ATOM      2  C   UNL     1       6.131   5.899  19.073  0.00  0.00    +0.000 C 
BRANCH   2   6
ATOM      3  C   UNL     1       2.170   4.202  18.709  0.00  0.00    +0.000 A 
ATOM      4  C   UNL     1       3.183   3.468  19.330  0.00  0.00    +0.000 A 
ATOM      5  C   UNL     1       4.489   3.972  19.399  0.00  0.00    +0.000 A 
ATOM      6  C   UNL     1       4.801   5.212  18.824  0.00  0.00    +0.000 A 
ATOM      7  C   UNL     1       3.791   5.903  18.137  0.00  0.00    +0.000 A 
ATOM      8  C   UNL     1       2.488   5.403  18.077  0.00  0.00    +0.000 A 
BRANCH   3  10
ATOM      9  C   UNL     1       0.884   2.242  18.911  0.00  0.00    +0.000 C 
ATOM     10  O   UNL     1       0.914   3.660  18.750  0.00  0.00    +0.000 OA
ENDBRANCH   3  10
ENDBRANCH   2   6
ENDBRANCH   1   2
BRANCH   1  11
ATOM     11  C   UNL     1       7.994   7.262  18.283  0.00  0.00    +0.000 C 
BRANCH  11  12
ATOM     12  C   UNL     1       7.841   8.677  17.677  0.00  0.00    +0.000 C 
BRANCH  12  13
ATOM     13  C   UNL     1       8.600   9.802  18.351  0.00  0.00    +0.000 A 
ATOM     14  C   UNL     1       8.778  11.006  17.642  0.00  0.00    +0.000 A 
ATOM     15  C   UNL     1       9.437  12.093  18.217  0.00  0.00    +0.000 A 
ATOM     16  C   UNL     1       9.906  11.993  19.521  0.00  0.00    +0.000 A 
ATOM     17 BR   UNL     1      10.788  13.468  20.315  0.00  0.00    +0.000 Br
ATOM     18  C   UNL     1       9.725  10.825  20.249  0.00  0.00    +0.000 A 
ATOM     19  C   UNL     1       9.068   9.730  19.668  0.00  0.00    +0.000 A 
ENDBRANCH  12  13
ENDBRANCH  11  12
ENDBRANCH   1  11
BRANCH   1  20
ATOM     20  C   UNL     1       7.525   5.090  17.275  0.00  0.00    +0.000 C 
BRANCH  20  21
ATOM     21  C   UNL     1       6.985   4.714  15.911  0.00  0.00    +0.000 A 
ATOM     22  C   UNL     1       5.856   3.896  15.779  0.00  0.00    +0.000 A 
ATOM     23  C   UNL     1       5.380   3.543  14.512  0.00  0.00    +0.000 A 
ATOM     24  C   UNL     1       6.014   4.006  13.354  0.00  0.00    +0.000 A 
ATOM     25  C   UNL     1       7.133   4.827  13.487  0.00  0.00    +0.000 A 
ATOM     26  C   UNL     1       7.603   5.198  14.750  0.00  0.00    +0.000 A 
BRANCH  24  27
ATOM     27  O   UNL     1       5.503   3.515  12.184  0.00  0.00    +0.000 OA
ATOM     28  C   UNL     1       5.978   2.242  11.759  0.00  0.00    +0.000 C 
ENDBRANCH  24  27
BRANCH  25  29
ATOM     29  O   UNL     1       7.882   5.256  12.429  0.00  0.00    +0.000 OA
ATOM     30  H   UNL     1       7.997   4.481  11.853  0.00  0.00    +0.000 HD
ENDBRANCH  25  29
ENDBRANCH  20  21
ENDBRANCH   1  20
TORSDOF 10
ENDMDL
MODEL 4
REMARK VINA RESULT:      -6.8      5.587     10.028
REMARK  Name = 
REMARK  12 active torsions:
REMARK  status: ('A' for Active; 'I' for Inactive)
REMARK    1  A    between atoms: C_1  and  O_2
REMARK    2  A    between atoms: O_2  and  C_3
REMARK    3  A    between atoms: C_6  and  C_7
REMARK    4  A    between atoms: C_7  and  N_8
REMARK    5  A    between atoms: N_8  and  C_9
REMARK    6  A    between atoms: N_8  and  C_18
REMARK    7  A    between atoms: C_9  and  C_10
REMARK    8  A    between atoms: C_10  and  C_11
REMARK    9  A    between atoms: C_18  and  C_19
REMARK   10  A    between atoms: C_22  and  O_23
REMARK   11  A    between atoms: O_23  and  C_24
REMARK   12  A    between atoms: C_25  and  O_26
REMARK                            x       y       z     vdW  Elec       q    Type
REMARK                         _______ _______ _______ _____ _____    ______ ____
ROOT
ATOM      1  N   UNL     1      -0.274   9.732  21.316  0.00  0.00    +0.000 NA
ENDROOT
BRANCH   1   2
ATOM      2  C   UNL     1       0.037  10.408  20.032  0.00  0.00    +0.000 C 
BRANCH   2   6
ATOM      3  C   UNL     1      -2.829  10.900  16.832  0.00  0.00    +0.000 A 
ATOM      4  C   UNL     1      -2.928  11.692  17.977  0.00  0.00    +0.000 A 
ATOM      5  C   UNL     1      -2.051  11.503  19.053  0.00  0.00    +0.000 A 
ATOM      6  C   UNL     1      -1.074  10.498  19.002  0.00  0.00    +0.000 A 
ATOM      7  C   UNL     1      -1.036   9.660  17.877  0.00  0.00    +0.000 A 
ATOM      8  C   UNL     1      -1.906   9.856  16.802  0.00  0.00    +0.000 A 
BRANCH   3  10
ATOM      9  C   UNL     1      -3.539  10.381  14.649  0.00  0.00    +0.000 C 
ATOM     10  O   UNL     1      -3.685  11.202  15.807  0.00  0.00    +0.000 OA
ENDBRANCH   3  10
ENDBRANCH   2   6
ENDBRANCH   1   2
BRANCH   1  11
ATOM     11  C   UNL     1       0.507   8.469  21.436  0.00  0.00    +0.000 C 
BRANCH  11  12
ATOM     12  C   UNL     1       1.682   8.353  20.436  0.00  0.00    +0.000 C 
BRANCH  12  13
ATOM     13  C   UNL     1       1.953   6.983  19.847  0.00  0.00    +0.000 A 
ATOM     14  C   UNL     1       2.543   6.910  18.571  0.00  0.00    +0.000 A 
ATOM     15  C   UNL     1       2.852   5.680  17.986  0.00  0.00    +0.000 A 
ATOM     16  C   UNL     1       2.591   4.509  18.686  0.00  0.00    +0.000 A 
ATOM     17 BR   UNL     1       3.020   2.838  17.907  0.00  0.00    +0.000 Br
ATOM     18  C   UNL     1       2.029   4.554  19.954  0.00  0.00    +0.000 A 
ATOM     19  C   UNL     1       1.714   5.790  20.539  0.00  0.00    +0.000 A 
ENDBRANCH  12  13
ENDBRANCH  11  12
ENDBRANCH   1  11
BRANCH   1  20
ATOM     20  C   UNL     1       0.073  10.653  22.433  0.00  0.00    +0.000 C 
BRANCH  20  21
ATOM     21  C   UNL     1      -0.946  11.738  22.718  0.00  0.00    +0.000 A 
ATOM     22  C   UNL     1      -0.683  13.078  22.404  0.00  0.00    +0.000 A 
ATOM     23  C   UNL     1      -1.627  14.070  22.689  0.00  0.00    +0.000 A 
ATOM     24  C   UNL     1      -2.852  13.746  23.282  0.00  0.00    +0.000 A 
ATOM     25  C   UNL     1      -3.114  12.410  23.586  0.00  0.00    +0.000 A 
ATOM     26  C   UNL     1      -2.184  11.411  23.287  0.00  0.00    +0.000 A 
BRANCH  24  27
ATOM     27  O   UNL     1      -3.644  14.819  23.588  0.00  0.00    +0.000 OA
ATOM     28  C   UNL     1      -3.141  15.733  24.556  0.00  0.00    +0.000 C 
ENDBRANCH  24  27
BRANCH  25  29
ATOM     29  O   UNL     1      -4.233  11.996  24.250  0.00  0.00    +0.000 OA
ATOM     30  H   UNL     1      -4.013  12.040  25.195  0.00  0.00    +0.000 HD
ENDBRANCH  25  29
ENDBRANCH  20  21
ENDBRANCH   1  20
TORSDOF 10
ENDMDL
MODEL 5
REMARK VINA RESULT:      -6.8      4.897      7.634
REMARK  Name = 
REMARK  12 active torsions:
REMARK  status: ('A' for Active; 'I' for Inactive)
REMARK    1  A    between atoms: C_1  and  O_2
REMARK    2  A    between atoms: O_2  and  C_3
REMARK    3  A    between atoms: C_6  and  C_7
REMARK    4  A    between atoms: C_7  and  N_8
REMARK    5  A    between atoms: N_8  and  C_9
REMARK    6  A    between atoms: N_8  and  C_18
REMARK    7  A    between atoms: C_9  and  C_10
REMARK    8  A    between atoms: C_10  and  C_11
REMARK    9  A    between atoms: C_18  and  C_19
REMARK   10  A    between atoms: C_22  and  O_23
REMARK   11  A    between atoms: O_23  and  C_24
REMARK   12  A    between atoms: C_25  and  O_26
REMARK                            x       y       z     vdW  Elec       q    Type
REMARK                         _______ _______ _______ _____ _____    ______ ____
ROOT
ATOM      1  N   UNL     1       7.333   5.840  18.061  0.00  0.00    +0.000 NA
ENDROOT
BRANCH   1   2
ATOM      2  C   UNL     1       6.255   6.235  17.120  0.00  0.00    +0.000 C 
BRANCH   2   6
ATOM      3  C   UNL     1       6.366   4.050  13.391  0.00  0.00    +0.000 A 
ATOM      4  C   UNL     1       7.481   4.787  13.793  0.00  0.00    +0.000 A 
ATOM      5  C   UNL     1       7.442   5.555  14.965  0.00  0.00    +0.000 A 
ATOM      6  C   UNL     1       6.273   5.612  15.737  0.00  0.00    +0.000 A 
ATOM      7  C   UNL     1       5.137   4.927  15.278  0.00  0.00    +0.000 A 
ATOM      8  C   UNL     1       5.180   4.155  14.115  0.00  0.00    +0.000 A 
BRANCH   3  10
ATOM      9  C   UNL     1       5.326   2.635  11.823  0.00  0.00    +0.000 C 
ATOM     10  O   UNL     1       6.520   3.278  12.271  0.00  0.00    +0.000 OA
ENDBRANCH   3  10
ENDBRANCH   2   6
ENDBRANCH   1   2
BRANCH   1  11
ATOM     11  C   UNL     1       8.062   7.046  18.546  0.00  0.00    +0.000 C 
BRANCH  11  12
ATOM     12  C   UNL     1       7.801   8.322  17.712  0.00  0.00    +0.000 C 
BRANCH  12  13
ATOM     13  C   UNL     1       8.461   9.602  18.184  0.00  0.00    +0.000 A 
ATOM     14  C   UNL     1       8.187  10.792  17.484  0.00  0.00    +0.000 A 
ATOM     15  C   UNL     1       8.733  12.011  17.889  0.00  0.00    +0.000 A 
ATOM     16  C   UNL     1       9.546  12.053  19.015  0.00  0.00    +0.000 A 
ATOM     17 BR   UNL     1      10.280  13.704  19.579  0.00  0.00    +0.000 Br
ATOM     18  C   UNL     1       9.815  10.897  19.735  0.00  0.00    +0.000 A 
ATOM     19  C   UNL     1       9.270   9.671  19.325  0.00  0.00    +0.000 A 
ENDBRANCH  12  13
ENDBRANCH  11  12
ENDBRANCH   1  11
BRANCH   1  20
ATOM     20  C   UNL     1       6.718   5.121  19.211  0.00  0.00    +0.000 C 
BRANCH  20  21
ATOM     21  C   UNL     1       5.255   4.765  19.045  0.00  0.00    +0.000 A 
ATOM     22  C   UNL     1       4.866   3.514  18.549  0.00  0.00    +0.000 A 
ATOM     23  C   UNL     1       3.511   3.207  18.385  0.00  0.00    +0.000 A 
ATOM     24  C   UNL     1       2.520   4.135  18.721  0.00  0.00    +0.000 A 
ATOM     25  C   UNL     1       2.910   5.377  19.223  0.00  0.00    +0.000 A 
ATOM     26  C   UNL     1       4.261   5.684  19.406  0.00  0.00    +0.000 A 
BRANCH  24  27
ATOM     27  O   UNL     1       1.242   3.743  18.428  0.00  0.00    +0.000 OA
ATOM     28  C   UNL     1       0.827   2.478  18.932  0.00  0.00    +0.000 C 
ENDBRANCH  24  27
BRANCH  25  29
ATOM     29  O   UNL     1       2.032   6.388  19.492  0.00  0.00    +0.000 OA
ATOM     30  H   UNL     1       2.070   6.984  18.725  0.00  0.00    +0.000 HD
ENDBRANCH  25  29
ENDBRANCH  20  21
ENDBRANCH   1  20
TORSDOF 10
ENDMDL
MODEL 6
REMARK VINA RESULT:      -6.7      4.828      7.626
REMARK  Name = 
REMARK  12 active torsions:
REMARK  status: ('A' for Active; 'I' for Inactive)
REMARK    1  A    between atoms: C_1  and  O_2
REMARK    2  A    between atoms: O_2  and  C_3
REMARK    3  A    between atoms: C_6  and  C_7
REMARK    4  A    between atoms: C_7  and  N_8
REMARK    5  A    between atoms: N_8  and  C_9
REMARK    6  A    between atoms: N_8  and  C_18
REMARK    7  A    between atoms: C_9  and  C_10
REMARK    8  A    between atoms: C_10  and  C_11
REMARK    9  A    between atoms: C_18  and  C_19
REMARK   10  A    between atoms: C_22  and  O_23
REMARK   11  A    between atoms: O_23  and  C_24
REMARK   12  A    between atoms: C_25  and  O_26
REMARK                            x       y       z     vdW  Elec       q    Type
REMARK                         _______ _______ _______ _____ _____    ______ ____
ROOT
ATOM      1  N   UNL     1       6.247   6.566  18.064  0.00  0.00    +0.000 NA
ENDROOT
BRANCH   1   2
ATOM      2  C   UNL     1       6.895   5.259  17.790  0.00  0.00    +0.000 C 
BRANCH   2   6
ATOM      3  C   UNL     1       6.088   3.924  13.757  0.00  0.00    +0.000 A 
ATOM      4  C   UNL     1       5.433   3.317  14.831  0.00  0.00    +0.000 A 
ATOM      5  C   UNL     1       5.730   3.689  16.149  0.00  0.00    +0.000 A 
ATOM      6  C   UNL     1       6.706   4.661  16.408  0.00  0.00    +0.000 A 
ATOM      7  C   UNL     1       7.410   5.206  15.323  0.00  0.00    +0.000 A 
ATOM      8  C   UNL     1       7.106   4.841  14.010  0.00  0.00    +0.000 A 
BRANCH   3  10
ATOM      9  C   UNL     1       6.698   2.917  11.720  0.00  0.00    +0.000 C 
ATOM     10  O   UNL     1       5.685   3.543  12.506  0.00  0.00    +0.000 OA
ENDBRANCH   3  10
ENDBRANCH   2   6
ENDBRANCH   1   2
BRANCH   1  11
ATOM     11  C   UNL     1       7.058   7.674  17.484  0.00  0.00    +0.000 C 
BRANCH  11  12
ATOM     12  C   UNL     1       8.310   8.044  18.314  0.00  0.00    +0.000 C 
BRANCH  12  13
ATOM     13  C   UNL     1       8.614   9.520  18.481  0.00  0.00    +0.000 A 
ATOM     14  C   UNL     1       9.389   9.921  19.586  0.00  0.00    +0.000 A 
ATOM     15  C   UNL     1       9.736  11.259  19.779  0.00  0.00    +0.000 A 
ATOM     16  C   UNL     1       9.326  12.209  18.852  0.00  0.00    +0.000 A 
ATOM     17 BR   UNL     1       9.805  14.024  19.098  0.00  0.00    +0.000 Br
ATOM     18  C   UNL     1       8.579  11.837  17.743  0.00  0.00    +0.000 A 
ATOM     19  C   UNL     1       8.226  10.492  17.552  0.00  0.00    +0.000 A 
ENDBRANCH  12  13
ENDBRANCH  11  12
ENDBRANCH   1  11
BRANCH   1  20
ATOM     20  C   UNL     1       4.888   6.558  17.456  0.00  0.00    +0.000 C 
BRANCH  20  21
ATOM     21  C   UNL     1       3.831   5.810  18.242  0.00  0.00    +0.000 A 
ATOM     22  C   UNL     1       3.808   5.848  19.642  0.00  0.00    +0.000 A 
ATOM     23  C   UNL     1       2.835   5.137  20.354  0.00  0.00    +0.000 A 
ATOM     24  C   UNL     1       1.863   4.386  19.685  0.00  0.00    +0.000 A 
ATOM     25  C   UNL     1       1.883   4.357  18.291  0.00  0.00    +0.000 A 
ATOM     26  C   UNL     1       2.841   5.078  17.573  0.00  0.00    +0.000 A 
BRANCH  24  27
ATOM     27  O   UNL     1       1.030   3.670  20.500  0.00  0.00    +0.000 OA
ATOM     28  C   UNL     1       1.645   2.836  21.476  0.00  0.00    +0.000 C 
ENDBRANCH  24  27
BRANCH  25  29
ATOM     29  O   UNL     1       1.044   3.581  17.543  0.00  0.00    +0.000 OA
ATOM     30  H   UNL     1       0.144   3.816  17.824  0.00  0.00    +0.000 HD
ENDBRANCH  25  29
ENDBRANCH  20  21
ENDBRANCH   1  20
TORSDOF 10
ENDMDL
MODEL 7
REMARK VINA RESULT:      -6.7      5.349      9.814
REMARK  Name = 
REMARK  12 active torsions:
REMARK  status: ('A' for Active; 'I' for Inactive)
REMARK    1  A    between atoms: C_1  and  O_2
REMARK    2  A    between atoms: O_2  and  C_3
REMARK    3  A    between atoms: C_6  and  C_7
REMARK    4  A    between atoms: C_7  and  N_8
REMARK    5  A    between atoms: N_8  and  C_9
REMARK    6  A    between atoms: N_8  and  C_18
REMARK    7  A    between atoms: C_9  and  C_10
REMARK    8  A    between atoms: C_10  and  C_11
REMARK    9  A    between atoms: C_18  and  C_19
REMARK   10  A    between atoms: C_22  and  O_23
REMARK   11  A    between atoms: O_23  and  C_24
REMARK   12  A    between atoms: C_25  and  O_26
REMARK                            x       y       z     vdW  Elec       q    Type
REMARK                         _______ _______ _______ _____ _____    ______ ____
ROOT
ATOM      1  N   UNL     1       0.436   9.941  19.791  0.00  0.00    +0.000 NA
ENDROOT
BRANCH   1   2
ATOM      2  C   UNL     1       0.069  10.878  18.700  0.00  0.00    +0.000 C 
BRANCH   2   6
ATOM      3  C   UNL     1      -4.196  10.884  17.986  0.00  0.00    +0.000 A 
ATOM      4  C   UNL     1      -3.385   9.963  17.320  0.00  0.00    +0.000 A 
ATOM      5  C   UNL     1      -1.994   9.988  17.487  0.00  0.00    +0.000 A 
ATOM      6  C   UNL     1      -1.395  10.955  18.308  0.00  0.00    +0.000 A 
ATOM      7  C   UNL     1      -2.217  11.921  18.909  0.00  0.00    +0.000 A 
ATOM      8  C   UNL     1      -3.604  11.889  18.749  0.00  0.00    +0.000 A 
BRANCH   3  10
ATOM      9  C   UNL     1      -6.267  11.968  17.711  0.00  0.00    +0.000 C 
ATOM     10  O   UNL     1      -5.546  10.740  17.814  0.00  0.00    +0.000 OA
ENDBRANCH   3  10
ENDBRANCH   2   6
ENDBRANCH   1   2
BRANCH   1  11
ATOM     11  C   UNL     1       1.441   8.954  19.306  0.00  0.00    +0.000 C 
BRANCH  11  12
ATOM     12  C   UNL     1       1.808   7.862  20.339  0.00  0.00    +0.000 C 
BRANCH  12  13
ATOM     13  C   UNL     1       2.012   6.456  19.812  0.00  0.00    +0.000 A 
ATOM     14  C   UNL     1       2.508   6.297  18.504  0.00  0.00    +0.000 A 
ATOM     15  C   UNL     1       2.753   5.031  17.972  0.00  0.00    +0.000 A 
ATOM     16  C   UNL     1       2.522   3.906  18.755  0.00  0.00    +0.000 A 
ATOM     17 BR   UNL     1       2.865   2.185  18.046  0.00  0.00    +0.000 Br
ATOM     18  C   UNL     1       2.053   4.036  20.055  0.00  0.00    +0.000 A 
ATOM     19  C   UNL     1       1.802   5.310  20.588  0.00  0.00    +0.000 A 
ENDBRANCH  12  13
ENDBRANCH  11  12
ENDBRANCH   1  11
BRANCH   1  20
ATOM     20  C   UNL     1       0.999  10.727  20.922  0.00  0.00    +0.000 C 
BRANCH  20  21
ATOM     21  C   UNL     1      -0.009  11.528  21.721  0.00  0.00    +0.000 A 
ATOM     22  C   UNL     1      -1.001  10.893  22.479  0.00  0.00    +0.000 A 
ATOM     23  C   UNL     1      -1.936  11.646  23.197  0.00  0.00    +0.000 A 
ATOM     24  C   UNL     1      -1.894  13.044  23.181  0.00  0.00    +0.000 A 
ATOM     25  C   UNL     1      -0.899  13.675  22.432  0.00  0.00    +0.000 A 
ATOM     26  C   UNL     1       0.048  12.928  21.727  0.00  0.00    +0.000 A 
BRANCH  24  27
ATOM     27  O   UNL     1      -2.917  13.657  23.851  0.00  0.00    +0.000 OA
ATOM     28  C   UNL     1      -4.143  13.814  23.146  0.00  0.00    +0.000 C 
ENDBRANCH  24  27
BRANCH  25  29
ATOM     29  O   UNL     1      -0.825  15.028  22.270  0.00  0.00    +0.000 OA
ATOM     30  H   UNL     1      -1.718  15.315  22.014  0.00  0.00    +0.000 HD
ENDBRANCH  25  29
ENDBRANCH  20  21
ENDBRANCH   1  20
TORSDOF 10
ENDMDL
MODEL 8
REMARK VINA RESULT:      -6.7      1.523      1.841
REMARK  Name = 
REMARK  12 active torsions:
REMARK  status: ('A' for Active; 'I' for Inactive)
REMARK    1  A    between atoms: C_1  and  O_2
REMARK    2  A    between atoms: O_2  and  C_3
REMARK    3  A    between atoms: C_6  and  C_7
REMARK    4  A    between atoms: C_7  and  N_8
REMARK    5  A    between atoms: N_8  and  C_9
REMARK    6  A    between atoms: N_8  and  C_18
REMARK    7  A    between atoms: C_9  and  C_10
REMARK    8  A    between atoms: C_10  and  C_11
REMARK    9  A    between atoms: C_18  and  C_19
REMARK   10  A    between atoms: C_22  and  O_23
REMARK   11  A    between atoms: O_23  and  C_24
REMARK   12  A    between atoms: C_25  and  O_26
REMARK                            x       y       z     vdW  Elec       q    Type
REMARK                         _______ _______ _______ _____ _____    ______ ____
ROOT
ATOM      1  N   UNL     1       2.510   7.888  17.966  0.00  0.00    +0.000 NA
ENDROOT
BRANCH   1   2
ATOM      2  C   UNL     1       2.199   7.210  19.250  0.00  0.00    +0.000 C 
BRANCH   2   6
ATOM      3  C   UNL     1       2.390   2.891  19.172  0.00  0.00    +0.000 A 
ATOM      4  C   UNL     1       1.983   3.586  18.031  0.00  0.00    +0.000 A 
ATOM      5  C   UNL     1       1.851   4.981  18.056  0.00  0.00    +0.000 A 
ATOM      6  C   UNL     1       2.103   5.696  19.235  0.00  0.00    +0.000 A 
ATOM      7  C   UNL     1       2.436   4.977  20.394  0.00  0.00    +0.000 A 
ATOM      8  C   UNL     1       2.576   3.587  20.364  0.00  0.00    +0.000 A 
BRANCH   3  10
ATOM      9  C   UNL     1       3.781   1.151  18.415  0.00  0.00    +0.000 C 
ATOM     10  O   UNL     1       2.555   1.539  19.033  0.00  0.00    +0.000 OA
ENDBRANCH   3  10
ENDBRANCH   2   6
ENDBRANCH   1   2
BRANCH   1  11
ATOM     11  C   UNL     1       1.843   9.219  17.911  0.00  0.00    +0.000 C 
BRANCH  11  12
ATOM     12  C   UNL     1       0.998   9.557  19.161  0.00  0.00    +0.000 C 
BRANCH  12  13
ATOM     13  C   UNL     1       0.525  10.990  19.308  0.00  0.00    +0.000 A 
ATOM     14  C   UNL     1       1.130  11.794  20.292  0.00  0.00    +0.000 A 
ATOM     15  C   UNL     1       0.767  13.132  20.456  0.00  0.00    +0.000 A 
ATOM     16  C   UNL     1      -0.194  13.685  19.618  0.00  0.00    +0.000 A 
ATOM     17 BR   UNL     1      -0.682  15.502  19.823  0.00  0.00    +0.000 Br
ATOM     18  C   UNL     1      -0.790  12.918  18.626  0.00  0.00    +0.000 A 
ATOM     19  C   UNL     1      -0.429  11.572  18.466  0.00  0.00    +0.000 A 
ENDBRANCH  12  13
ENDBRANCH  11  12
ENDBRANCH   1  11
BRANCH   1  20
ATOM     20  C   UNL     1       3.986   8.052  17.862  0.00  0.00    +0.000 C 
BRANCH  20  21
ATOM     21  C   UNL     1       4.718   6.918  17.175  0.00  0.00    +0.000 A 
ATOM     22  C   UNL     1       4.743   6.812  15.779  0.00  0.00    +0.000 A 
ATOM     23  C   UNL     1       5.409   5.749  15.160  0.00  0.00    +0.000 A 
ATOM     24  C   UNL     1       6.070   4.778  15.920  0.00  0.00    +0.000 A 
ATOM     25  C   UNL     1       6.051   4.890  17.311  0.00  0.00    +0.000 A 
ATOM     26  C   UNL     1       5.403   5.959  17.934  0.00  0.00    +0.000 A 
BRANCH  24  27
ATOM     27  O   UNL     1       6.603   3.747  15.196  0.00  0.00    +0.000 OA
ATOM     28  C   UNL     1       6.333   3.736  13.799  0.00  0.00    +0.000 C 
ENDBRANCH  24  27
BRANCH  25  29
ATOM     29  O   UNL     1       6.580   3.950  18.148  0.00  0.00    +0.000 OA
ATOM     30  H   UNL     1       6.775   4.413  18.979  0.00  0.00    +0.000 HD
ENDBRANCH  25  29
ENDBRANCH  20  21
ENDBRANCH   1  20
TORSDOF 10
ENDMDL
MODEL 9
REMARK VINA RESULT:      -6.6      5.365      9.846
REMARK  Name = 
REMARK  12 active torsions:
REMARK  status: ('A' for Active; 'I' for Inactive)
REMARK    1  A    between atoms: C_1  and  O_2
REMARK    2  A    between atoms: O_2  and  C_3
REMARK    3  A    between atoms: C_6  and  C_7
REMARK    4  A    between atoms: C_7  and  N_8
REMARK    5  A    between atoms: N_8  and  C_9
REMARK    6  A    between atoms: N_8  and  C_18
REMARK    7  A    between atoms: C_9  and  C_10
REMARK    8  A    between atoms: C_10  and  C_11
REMARK    9  A    between atoms: C_18  and  C_19
REMARK   10  A    between atoms: C_22  and  O_23
REMARK   11  A    between atoms: O_23  and  C_24
REMARK   12  A    between atoms: C_25  and  O_26
REMARK                            x       y       z     vdW  Elec       q    Type
REMARK                         _______ _______ _______ _____ _____    ______ ____
ROOT
ATOM      1  N   UNL     1       0.348  10.005  19.984  0.00  0.00    +0.000 NA
ENDROOT
BRANCH   1   2
ATOM      2  C   UNL     1       0.022  10.988  18.921  0.00  0.00    +0.000 C 
BRANCH   2   6
ATOM      3  C   UNL     1      -4.178  10.894  17.900  0.00  0.00    +0.000 A 
ATOM      4  C   UNL     1      -3.298   9.999  17.290  0.00  0.00    +0.000 A 
ATOM      5  C   UNL     1      -1.924  10.057  17.557  0.00  0.00    +0.000 A 
ATOM      6  C   UNL     1      -1.411  11.032  18.424  0.00  0.00    +0.000 A 
ATOM      7  C   UNL     1      -2.298  11.973  18.970  0.00  0.00    +0.000 A 
ATOM      8  C   UNL     1      -3.669  11.907  18.709  0.00  0.00    +0.000 A 
BRANCH   3  10
ATOM      9  C   UNL     1      -6.363  10.807  18.770  0.00  0.00    +0.000 C 
ATOM     10  O   UNL     1      -5.509  10.718  17.630  0.00  0.00    +0.000 OA
ENDBRANCH   3  10
ENDBRANCH   2   6
ENDBRANCH   1   2
BRANCH   1  11
ATOM     11  C   UNL     1       1.374   9.041  19.498  0.00  0.00    +0.000 C 
BRANCH  11  12
ATOM     12  C   UNL     1       1.630   7.851  20.453  0.00  0.00    +0.000 C 
BRANCH  12  13
ATOM     13  C   UNL     1       2.076   6.546  19.825  0.00  0.00    +0.000 A 
ATOM     14  C   UNL     1       2.061   5.384  20.619  0.00  0.00    +0.000 A 
ATOM     15  C   UNL     1       2.425   4.143  20.092  0.00  0.00    +0.000 A 
ATOM     16  C   UNL     1       2.789   4.052  18.754  0.00  0.00    +0.000 A 
ATOM     17 BR   UNL     1       3.270   2.371  18.028  0.00  0.00    +0.000 Br
ATOM     18  C   UNL     1       2.792   5.179  17.945  0.00  0.00    +0.000 A 
ATOM     19  C   UNL     1       2.431   6.427  18.476  0.00  0.00    +0.000 A 
ENDBRANCH  12  13
ENDBRANCH  11  12
ENDBRANCH   1  11
BRANCH   1  20
ATOM     20  C   UNL     1       0.863  10.742  21.170  0.00  0.00    +0.000 C 
BRANCH  20  21
ATOM     21  C   UNL     1      -0.097  11.745  21.778  0.00  0.00    +0.000 A 
ATOM     22  C   UNL     1       0.146  13.121  21.696  0.00  0.00    +0.000 A 
ATOM     23  C   UNL     1      -0.742  14.033  22.278  0.00  0.00    +0.000 A 
ATOM     24  C   UNL     1      -1.891  13.591  22.941  0.00  0.00    +0.000 A 
ATOM     25  C   UNL     1      -2.135  12.220  23.014  0.00  0.00    +0.000 A 
ATOM     26  C   UNL     1      -1.262  11.305  22.420  0.00  0.00    +0.000 A 
BRANCH  24  27
ATOM     27  O   UNL     1      -2.624  14.579  23.540  0.00  0.00    +0.000 OA
ATOM     28  C   UNL     1      -2.230  14.968  24.851  0.00  0.00    +0.000 C 
ENDBRANCH  24  27
BRANCH  25  29
ATOM     29  O   UNL     1      -3.172  11.677  23.717  0.00  0.00    +0.000 OA
ATOM     30  H   UNL     1      -2.769  11.204  24.464  0.00  0.00    +0.000 HD
ENDBRANCH  25  29
ENDBRANCH  20  21
ENDBRANCH   1  20
TORSDOF 10
ENDMDL
