MODEL 1
REMARK VINA RESULT:      -7.8      0.000      0.000
REMARK  Name = 
REMARK  9 active torsions:
REMARK  status: ('A' for Active; 'I' for Inactive)
REMARK    1  A    between atoms: C_1  and  O_2
REMARK    2  A    between atoms: O_2  and  C_3
REMARK    3  A    between atoms: C_3  and  C_5
REMARK    4  A    between atoms: N_7  and  C_8
REMARK    5  A    between atoms: C_8  and  C_9
REMARK    6  A    between atoms: C_9  and  O_10
REMARK    7  A    between atoms: O_10  and  C_11
REMARK    8  A    between atoms: C_16  and  O_17
REMARK    9  A    between atoms: O_17  and  C_18
REMARK                            x       y       z     vdW  Elec       q    Type
REMARK                         _______ _______ _______ _____ _____    ______ ____
ROOT
ATOM      1  C   UNL     1       5.953   4.408  15.656  0.00  0.00    +0.000 A 
ATOM      2  C   UNL     1       4.910   3.573  16.021  0.00  0.00    +0.000 A 
ATOM      3  N   UNL     1       4.765   3.591  17.382  0.00  0.00    +0.000 N 
ATOM      4  C   UNL     1       5.685   4.466  17.928  0.00  0.00    +0.000 A 
ATOM      5  C   UNL     1       5.919   4.836  19.262  0.00  0.00    +0.000 A 
ATOM      6  C   UNL     1       6.930   5.765  19.524  0.00  0.00    +0.000 A 
ATOM      7  C   UNL     1       7.691   6.302  18.493  0.00  0.00    +0.000 A 
ATOM      8  C   UNL     1       7.460   5.921  17.169  0.00  0.00    +0.000 A 
ATOM      9  C   UNL     1       6.441   4.990  16.868  0.00  0.00    +0.000 A 
ENDROOT
BRANCH   1  10
ATOM     10  C   UNL     1       6.378   4.582  14.271  0.00  0.00    +0.000 C 
ATOM     11  O   UNL     1       7.344   5.273  13.954  0.00  0.00    +0.000 OA
BRANCH  10  13
ATOM     12  C   UNL     1       6.297   3.378  12.265  0.00  0.00    +0.000 C 
ATOM     13  O   UNL     1       5.591   3.925  13.378  0.00  0.00    +0.000 OA
ENDBRANCH  10  13
ENDBRANCH   1  10
BRANCH   3  14
ATOM     14  C   UNL     1       3.809   2.799  18.155  0.00  0.00    +0.000 C 
BRANCH  14  15
ATOM     15  C   UNL     1       2.525   2.488  17.389  0.00  0.00    +0.000 C 
BRANCH  15  16
ATOM     16  O   UNL     1       1.383   3.164  17.922  0.00  0.00    +0.000 OA
BRANCH  16  17
ATOM     17  C   UNL     1       1.694   4.335  18.586  0.00  0.00    +0.000 A 
ATOM     18  C   UNL     1       2.134   5.480  17.891  0.00  0.00    +0.000 A 
ATOM     19  C   UNL     1       2.461   6.662  18.557  0.00  0.00    +0.000 A 
ATOM     20  C   UNL     1       2.329   6.731  19.932  0.00  0.00    +0.000 A 
ATOM     21  C   UNL     1       1.865   5.619  20.633  0.00  0.00    +0.000 A 
ATOM     22  C   UNL     1       1.542   4.415  19.980  0.00  0.00    +0.000 A 
BRANCH  22  23
ATOM     23  O   UNL     1       1.126   3.457  20.863  0.00  0.00    +0.000 OA
ATOM     24  C   UNL     1       2.088   2.779  21.650  0.00  0.00    +0.000 C 
ENDBRANCH  22  23
ENDBRANCH  16  17
ENDBRANCH  15  16
ENDBRANCH  14  15
ENDBRANCH   3  14
TORSDOF 7
ENDMDL
MODEL 2
REMARK VINA RESULT:      -7.2      1.901      3.822
REMARK  Name = 
REMARK  9 active torsions:
REMARK  status: ('A' for Active; 'I' for Inactive)
REMARK    1  A    between atoms: C_1  and  O_2
REMARK    2  A    between atoms: O_2  and  C_3
REMARK    3  A    between atoms: C_3  and  C_5
REMARK    4  A    between atoms: N_7  and  C_8
REMARK    5  A    between atoms: C_8  and  C_9
REMARK    6  A    between atoms: C_9  and  O_10
REMARK    7  A    between atoms: O_10  and  C_11
REMARK    8  A    between atoms: C_16  and  O_17
REMARK    9  A    between atoms: O_17  and  C_18
REMARK                            x       y       z     vdW  Elec       q    Type
REMARK                         _______ _______ _______ _____ _____    ______ ____
ROOT
ATOM      1  C   UNL     1       6.703   5.693  17.237  0.00  0.00    +0.000 A 
ATOM      2  C   UNL     1       5.765   4.955  17.939  0.00  0.00    +0.000 A 
ATOM      3  N   UNL     1       5.161   4.061  17.096  0.00  0.00    +0.000 N 
ATOM      4  C   UNL     1       5.720   4.174  15.837  0.00  0.00    +0.000 A 
ATOM      5  C   UNL     1       5.453   3.472  14.650  0.00  0.00    +0.000 A 
ATOM      6  C   UNL     1       6.190   3.798  13.508  0.00  0.00    +0.000 A 
ATOM      7  C   UNL     1       7.156   4.797  13.542  0.00  0.00    +0.000 A 
ATOM      8  C   UNL     1       7.409   5.497  14.725  0.00  0.00    +0.000 A 
ATOM      9  C   UNL     1       6.687   5.189  15.898  0.00  0.00    +0.000 A 
ENDROOT
BRANCH   1  10
ATOM     10  C   UNL     1       7.496   6.753  17.851  0.00  0.00    +0.000 C 
ATOM     11  O   UNL     1       8.142   6.586  18.883  0.00  0.00    +0.000 OA
BRANCH  10  13
ATOM     12  C   UNL     1       8.067   9.023  17.849  0.00  0.00    +0.000 C 
ATOM     13  O   UNL     1       7.430   7.935  17.182  0.00  0.00    +0.000 OA
ENDBRANCH  10  13
ENDBRANCH   1  10
BRANCH   3  14
ATOM     14  C   UNL     1       4.080   3.142  17.448  0.00  0.00    +0.000 C 
BRANCH  14  15
ATOM     15  C   UNL     1       2.742   3.514  16.814  0.00  0.00    +0.000 C 
BRANCH  15  16
ATOM     16  O   UNL     1       1.996   4.448  17.600  0.00  0.00    +0.000 OA
BRANCH  16  17
ATOM     17  C   UNL     1       1.902   4.098  18.933  0.00  0.00    +0.000 A 
ATOM     18  C   UNL     1       1.343   2.866  19.332  0.00  0.00    +0.000 A 
ATOM     19  C   UNL     1       1.234   2.512  20.678  0.00  0.00    +0.000 A 
ATOM     20  C   UNL     1       1.708   3.373  21.652  0.00  0.00    +0.000 A 
ATOM     21  C   UNL     1       2.293   4.580  21.274  0.00  0.00    +0.000 A 
ATOM     22  C   UNL     1       2.401   4.959  19.923  0.00  0.00    +0.000 A 
BRANCH  22  23
ATOM     23  O   UNL     1       2.991   6.186  19.787  0.00  0.00    +0.000 OA
ATOM     24  C   UNL     1       2.184   7.349  19.829  0.00  0.00    +0.000 C 
ENDBRANCH  22  23
ENDBRANCH  16  17
ENDBRANCH  15  16
ENDBRANCH  14  15
ENDBRANCH   3  14
TORSDOF 7
ENDMDL
MODEL 3
REMARK VINA RESULT:      -7.2      1.000      1.948
REMARK  Name = 
REMARK  9 active torsions:
REMARK  status: ('A' for Active; 'I' for Inactive)
REMARK    1  A    between atoms: C_1  and  O_2
REMARK    2  A    between atoms: O_2  and  C_3
REMARK    3  A    between atoms: C_3  and  C_5
REMARK    4  A    between atoms: N_7  and  C_8
REMARK    5  A    between atoms: C_8  and  C_9
REMARK    6  A    between atoms: C_9  and  O_10
REMARK    7  A    between atoms: O_10  and  C_11
REMARK    8  A    between atoms: C_16  and  O_17
REMARK    9  A    between atoms: O_17  and  C_18
REMARK                            x       y       z     vdW  Elec       q    Type
REMARK                         _______ _______ _______ _____ _____    ______ ____
ROOT
ATOM      1  C   UNL     1       6.151   4.311  15.560  0.00  0.00    +0.000 A 
ATOM      2  C   UNL     1       5.130   3.439  15.900  0.00  0.00    +0.000 A 
ATOM      3  N   UNL     1       4.921   3.484  17.252  0.00  0.00    +0.000 N 
ATOM      4  C   UNL     1       5.775   4.413  17.815  0.00  0.00    +0.000 A 
ATOM      5  C   UNL     1       5.930   4.826  19.148  0.00  0.00    +0.000 A 
ATOM      6  C   UNL     1       6.886   5.806  19.431  0.00  0.00    +0.000 A 
ATOM      7  C   UNL     1       7.670   6.351  18.421  0.00  0.00    +0.000 A 
ATOM      8  C   UNL     1       7.517   5.928  17.098  0.00  0.00    +0.000 A 
ATOM      9  C   UNL     1       6.556   4.944  16.777  0.00  0.00    +0.000 A 
ENDROOT
BRANCH   1  10
ATOM     10  C   UNL     1       6.631   4.469  14.192  0.00  0.00    +0.000 C 
ATOM     11  O   UNL     1       7.186   5.492  13.796  0.00  0.00    +0.000 OA
BRANCH  10  13
ATOM     12  C   UNL     1       5.514   3.647  12.306  0.00  0.00    +0.000 C 
ATOM     13  O   UNL     1       6.386   3.388  13.404  0.00  0.00    +0.000 OA
ENDBRANCH  10  13
ENDBRANCH   1  10
BRANCH   3  14
ATOM     14  C   UNL     1       3.965   2.670  18.002  0.00  0.00    +0.000 C 
BRANCH  14  15
ATOM     15  C   UNL     1       2.672   2.400  17.236  0.00  0.00    +0.000 C 
BRANCH  15  16
ATOM     16  O   UNL     1       1.799   3.532  17.206  0.00  0.00    +0.000 OA
BRANCH  16  17
ATOM     17  C   UNL     1       1.768   4.239  18.392  0.00  0.00    +0.000 A 
ATOM     18  C   UNL     1       1.212   3.685  19.564  0.00  0.00    +0.000 A 
ATOM     19  C   UNL     1       1.166   4.398  20.763  0.00  0.00    +0.000 A 
ATOM     20  C   UNL     1       1.700   5.673  20.821  0.00  0.00    +0.000 A 
ATOM     21  C   UNL     1       2.282   6.224  19.680  0.00  0.00    +0.000 A 
ATOM     22  C   UNL     1       2.327   5.525  18.460  0.00  0.00    +0.000 A 
BRANCH  22  23
ATOM     23  O   UNL     1       2.926   6.263  17.476  0.00  0.00    +0.000 OA
ATOM     24  C   UNL     1       3.577   7.473  17.819  0.00  0.00    +0.000 C 
ENDBRANCH  22  23
ENDBRANCH  16  17
ENDBRANCH  15  16
ENDBRANCH  14  15
ENDBRANCH   3  14
TORSDOF 7
ENDMDL
MODEL 4
REMARK VINA RESULT:      -7.0      3.994      5.445
REMARK  Name = 
REMARK  9 active torsions:
REMARK  status: ('A' for Active; 'I' for Inactive)
REMARK    1  A    between atoms: C_1  and  O_2
REMARK    2  A    between atoms: O_2  and  C_3
REMARK    3  A    between atoms: C_3  and  C_5
REMARK    4  A    between atoms: N_7  and  C_8
REMARK    5  A    between atoms: C_8  and  C_9
REMARK    6  A    between atoms: C_9  and  O_10
REMARK    7  A    between atoms: O_10  and  C_11
REMARK    8  A    between atoms: C_16  and  O_17
REMARK    9  A    between atoms: O_17  and  C_18
REMARK                            x       y       z     vdW  Elec       q    Type
REMARK                         _______ _______ _______ _____ _____    ______ ____
ROOT
ATOM      1  C   UNL     1       5.005   5.701  16.947  0.00  0.00    +0.000 A 
ATOM      2  C   UNL     1       4.530   6.889  17.475  0.00  0.00    +0.000 A 
ATOM      3  N   UNL     1       3.319   6.670  18.076  0.00  0.00    +0.000 N 
ATOM      4  C   UNL     1       3.000   5.329  17.983  0.00  0.00    +0.000 A 
ATOM      5  C   UNL     1       1.884   4.617  18.454  0.00  0.00    +0.000 A 
ATOM      6  C   UNL     1       1.829   3.241  18.218  0.00  0.00    +0.000 A 
ATOM      7  C   UNL     1       2.846   2.593  17.527  0.00  0.00    +0.000 A 
ATOM      8  C   UNL     1       3.948   3.309  17.053  0.00  0.00    +0.000 A 
ATOM      9  C   UNL     1       4.039   4.700  17.280  0.00  0.00    +0.000 A 
ENDROOT
BRANCH   1  10
ATOM     10  C   UNL     1       6.263   5.610  16.214  0.00  0.00    +0.000 C 
ATOM     11  O   UNL     1       7.355   5.530  16.774  0.00  0.00    +0.000 OA
BRANCH  10  13
ATOM     12  C   UNL     1       6.290   4.382  14.221  0.00  0.00    +0.000 C 
ATOM     13  O   UNL     1       6.106   5.643  14.863  0.00  0.00    +0.000 OA
ENDBRANCH  10  13
ENDBRANCH   1  10
BRANCH   3  14
ATOM     14  C   UNL     1       2.473   7.686  18.701  0.00  0.00    +0.000 C 
BRANCH  14  15
ATOM     15  C   UNL     1       1.874   8.671  17.700  0.00  0.00    +0.000 C 
BRANCH  15  16
ATOM     16  O   UNL     1       1.884  10.020  18.174  0.00  0.00    +0.000 OA
BRANCH  16  17
ATOM     17  C   UNL     1       0.634  10.494  18.521  0.00  0.00    +0.000 A 
ATOM     18  C   UNL     1      -0.534  10.023  17.884  0.00  0.00    +0.000 A 
ATOM     19  C   UNL     1      -1.799  10.506  18.220  0.00  0.00    +0.000 A 
ATOM     20  C   UNL     1      -1.925  11.454  19.221  0.00  0.00    +0.000 A 
ATOM     21  C   UNL     1      -0.785  11.907  19.883  0.00  0.00    +0.000 A 
ATOM     22  C   UNL     1       0.499  11.440  19.549  0.00  0.00    +0.000 A 
BRANCH  22  23
ATOM     23  O   UNL     1       1.467  12.032  20.314  0.00  0.00    +0.000 OA
ATOM     24  C   UNL     1       2.098  13.207  19.840  0.00  0.00    +0.000 C 
ENDBRANCH  22  23
ENDBRANCH  16  17
ENDBRANCH  15  16
ENDBRANCH  14  15
ENDBRANCH   3  14
TORSDOF 7
ENDMDL
MODEL 5
REMARK VINA RESULT:      -7.0      3.852      6.225
REMARK  Name = 
REMARK  9 active torsions:
REMARK  status: ('A' for Active; 'I' for Inactive)
REMARK    1  A    between atoms: C_1  and  O_2
REMARK    2  A    between atoms: O_2  and  C_3
REMARK    3  A    between atoms: C_3  and  C_5
REMARK    4  A    between atoms: N_7  and  C_8
REMARK    5  A    between atoms: C_8  and  C_9
REMARK    6  A    between atoms: C_9  and  O_10
REMARK    7  A    between atoms: O_10  and  C_11
REMARK    8  A    between atoms: C_16  and  O_17
REMARK    9  A    between atoms: O_17  and  C_18
REMARK                            x       y       z     vdW  Elec       q    Type
REMARK                         _______ _______ _______ _____ _____    ______ ____
ROOT
ATOM      1  C   UNL     1       2.779   4.199  18.691  0.00  0.00    +0.000 A 
ATOM      2  C   UNL     1       2.214   5.416  19.030  0.00  0.00    +0.000 A 
ATOM      3  N   UNL     1       2.825   6.417  18.323  0.00  0.00    +0.000 N 
ATOM      4  C   UNL     1       3.774   5.868  17.483  0.00  0.00    +0.000 A 
ATOM      5  C   UNL     1       4.642   6.474  16.559  0.00  0.00    +0.000 A 
ATOM      6  C   UNL     1       5.506   5.655  15.827  0.00  0.00    +0.000 A 
ATOM      7  C   UNL     1       5.515   4.278  16.014  0.00  0.00    +0.000 A 
ATOM      8  C   UNL     1       4.656   3.683  16.942  0.00  0.00    +0.000 A 
ATOM      9  C   UNL     1       3.765   4.480  17.694  0.00  0.00    +0.000 A 
ENDROOT
BRANCH   1  10
ATOM     10  C   UNL     1       2.364   2.939  19.297  0.00  0.00    +0.000 C 
ATOM     11  O   UNL     1       1.597   2.154  18.743  0.00  0.00    +0.000 OA
BRANCH  10  13
ATOM     12  C   UNL     1       1.925   2.664  21.581  0.00  0.00    +0.000 C 
ATOM     13  O   UNL     1       2.892   2.734  20.534  0.00  0.00    +0.000 OA
ENDBRANCH  10  13
ENDBRANCH   1  10
BRANCH   3  14
ATOM     14  C   UNL     1       2.547   7.848  18.443  0.00  0.00    +0.000 C 
BRANCH  14  15
ATOM     15  C   UNL     1       1.756   8.204  19.700  0.00  0.00    +0.000 C 
BRANCH  15  16
ATOM     16  O   UNL     1       0.942   9.369  19.531  0.00  0.00    +0.000 OA
BRANCH  16  17
ATOM     17  C   UNL     1       0.325   9.785  20.694  0.00  0.00    +0.000 A 
ATOM     18  C   UNL     1       0.381   9.013  21.874  0.00  0.00    +0.000 A 
ATOM     19  C   UNL     1      -0.251   9.422  23.049  0.00  0.00    +0.000 A 
ATOM     20  C   UNL     1      -0.932  10.626  23.076  0.00  0.00    +0.000 A 
ATOM     21  C   UNL     1      -0.971  11.417  21.928  0.00  0.00    +0.000 A 
ATOM     22  C   UNL     1      -0.350  11.015  20.731  0.00  0.00    +0.000 A 
BRANCH  22  23
ATOM     23  O   UNL     1      -0.531  11.935  19.734  0.00  0.00    +0.000 OA
ATOM     24  C   UNL     1      -0.672  13.302  20.073  0.00  0.00    +0.000 C 
ENDBRANCH  22  23
ENDBRANCH  16  17
ENDBRANCH  15  16
ENDBRANCH  14  15
ENDBRANCH   3  14
TORSDOF 7
ENDMDL
MODEL 6
REMARK VINA RESULT:      -7.0      3.682      5.237
REMARK  Name = 
REMARK  9 active torsions:
REMARK  status: ('A' for Active; 'I' for Inactive)
REMARK    1  A    between atoms: C_1  and  O_2
REMARK    2  A    between atoms: O_2  and  C_3
REMARK    3  A    between atoms: C_3  and  C_5
REMARK    4  A    between atoms: N_7  and  C_8
REMARK    5  A    between atoms: C_8  and  C_9
REMARK    6  A    between atoms: C_9  and  O_10
REMARK    7  A    between atoms: O_10  and  C_11
REMARK    8  A    between atoms: C_16  and  O_17
REMARK    9  A    between atoms: O_17  and  C_18
REMARK                            x       y       z     vdW  Elec       q    Type
REMARK                         _______ _______ _______ _____ _____    ______ ____
ROOT
ATOM      1  C   UNL     1       4.860   5.836  16.909  0.00  0.00    +0.000 A 
ATOM      2  C   UNL     1       4.351   7.019  17.417  0.00  0.00    +0.000 A 
ATOM      3  N   UNL     1       3.148   6.775  18.026  0.00  0.00    +0.000 N 
ATOM      4  C   UNL     1       2.870   5.423  17.959  0.00  0.00    +0.000 A 
ATOM      5  C   UNL     1       1.777   4.687  18.446  0.00  0.00    +0.000 A 
ATOM      6  C   UNL     1       1.762   3.306  18.236  0.00  0.00    +0.000 A 
ATOM      7  C   UNL     1       2.797   2.676  17.554  0.00  0.00    +0.000 A 
ATOM      8  C   UNL     1       3.876   3.416  17.064  0.00  0.00    +0.000 A 
ATOM      9  C   UNL     1       3.926   4.813  17.264  0.00  0.00    +0.000 A 
ENDROOT
BRANCH   1  10
ATOM     10  C   UNL     1       6.119   5.769  16.175  0.00  0.00    +0.000 C 
ATOM     11  O   UNL     1       6.171   5.633  14.954  0.00  0.00    +0.000 OA
BRANCH  10  13
ATOM     12  C   UNL     1       7.567   4.631  17.620  0.00  0.00    +0.000 C 
ATOM     13  O   UNL     1       7.217   5.853  16.974  0.00  0.00    +0.000 OA
ENDBRANCH  10  13
ENDBRANCH   1  10
BRANCH   3  14
ATOM     14  C   UNL     1       2.274   7.777  18.634  0.00  0.00    +0.000 C 
BRANCH  14  15
ATOM     15  C   UNL     1       2.081   9.016  17.764  0.00  0.00    +0.000 C 
BRANCH  15  16
ATOM     16  O   UNL     1       0.858   9.704  18.041  0.00  0.00    +0.000 OA
BRANCH  16  17
ATOM     17  C   UNL     1       1.003  10.759  18.920  0.00  0.00    +0.000 A 
ATOM     18  C   UNL     1       1.797  11.880  18.598  0.00  0.00    +0.000 A 
ATOM     19  C   UNL     1       1.958  12.945  19.486  0.00  0.00    +0.000 A 
ATOM     20  C   UNL     1       1.306  12.921  20.707  0.00  0.00    +0.000 A 
ATOM     21  C   UNL     1       0.493  11.836  21.028  0.00  0.00    +0.000 A 
ATOM     22  C   UNL     1       0.328  10.749  20.151  0.00  0.00    +0.000 A 
BRANCH  22  23
ATOM     23  O   UNL     1      -0.498   9.794  20.678  0.00  0.00    +0.000 OA
ATOM     24  C   UNL     1       0.055   8.778  21.494  0.00  0.00    +0.000 C 
ENDBRANCH  22  23
ENDBRANCH  16  17
ENDBRANCH  15  16
ENDBRANCH  14  15
ENDBRANCH   3  14
TORSDOF 7
ENDMDL
MODEL 7
REMARK VINA RESULT:      -7.0      0.996      1.997
REMARK  Name = 
REMARK  9 active torsions:
REMARK  status: ('A' for Active; 'I' for Inactive)
REMARK    1  A    between atoms: C_1  and  O_2
REMARK    2  A    between atoms: O_2  and  C_3
REMARK    3  A    between atoms: C_3  and  C_5
REMARK    4  A    between atoms: N_7  and  C_8
REMARK    5  A    between atoms: C_8  and  C_9
REMARK    6  A    between atoms: C_9  and  O_10
REMARK    7  A    between atoms: O_10  and  C_11
REMARK    8  A    between atoms: C_16  and  O_17
REMARK    9  A    between atoms: O_17  and  C_18
REMARK                            x       y       z     vdW  Elec       q    Type
REMARK                         _______ _______ _______ _____ _____    ______ ____
ROOT
ATOM      1  C   UNL     1       6.308   4.480  15.511  0.00  0.00    +0.000 A 
ATOM      2  C   UNL     1       5.133   3.751  15.576  0.00  0.00    +0.000 A 
ATOM      3  N   UNL     1       4.701   3.694  16.874  0.00  0.00    +0.000 N 
ATOM      4  C   UNL     1       5.566   4.416  17.674  0.00  0.00    +0.000 A 
ATOM      5  C   UNL     1       5.543   4.666  19.056  0.00  0.00    +0.000 A 
ATOM      6  C   UNL     1       6.561   5.451  19.604  0.00  0.00    +0.000 A 
ATOM      7  C   UNL     1       7.576   5.963  18.805  0.00  0.00    +0.000 A 
ATOM      8  C   UNL     1       7.598   5.702  17.432  0.00  0.00    +0.000 A 
ATOM      9  C   UNL     1       6.580   4.919  16.845  0.00  0.00    +0.000 A 
ENDROOT
BRANCH   1  10
ATOM     10  C   UNL     1       7.036   4.697  14.265  0.00  0.00    +0.000 C 
ATOM     11  O   UNL     1       7.869   5.589  14.128  0.00  0.00    +0.000 OA
BRANCH  10  13
ATOM     12  C   UNL     1       7.118   4.219  11.974  0.00  0.00    +0.000 C 
ATOM     13  O   UNL     1       6.685   3.830  13.277  0.00  0.00    +0.000 OA
ENDBRANCH  10  13
ENDBRANCH   1  10
BRANCH   3  14
ATOM     14  C   UNL     1       3.527   2.969  17.358  0.00  0.00    +0.000 C 
BRANCH  14  15
ATOM     15  C   UNL     1       2.207   3.592  16.910  0.00  0.00    +0.000 C 
BRANCH  15  16
ATOM     16  O   UNL     1       1.148   3.384  17.849  0.00  0.00    +0.000 OA
BRANCH  16  17
ATOM     17  C   UNL     1       1.544   3.510  19.166  0.00  0.00    +0.000 A 
ATOM     18  C   UNL     1       1.759   2.380  19.982  0.00  0.00    +0.000 A 
ATOM     19  C   UNL     1       2.147   2.501  21.317  0.00  0.00    +0.000 A 
ATOM     20  C   UNL     1       2.354   3.758  21.857  0.00  0.00    +0.000 A 
ATOM     21  C   UNL     1       2.177   4.886  21.057  0.00  0.00    +0.000 A 
ATOM     22  C   UNL     1       1.775   4.783  19.713  0.00  0.00    +0.000 A 
BRANCH  22  23
ATOM     23  O   UNL     1       1.648   6.013  19.127  0.00  0.00    +0.000 OA
ATOM     24  C   UNL     1       2.815   6.722  18.751  0.00  0.00    +0.000 C 
ENDBRANCH  22  23
ENDBRANCH  16  17
ENDBRANCH  15  16
ENDBRANCH  14  15
ENDBRANCH   3  14
TORSDOF 7
ENDMDL
MODEL 8
REMARK VINA RESULT:      -7.0      3.782      5.491
REMARK  Name = 
REMARK  9 active torsions:
REMARK  status: ('A' for Active; 'I' for Inactive)
REMARK    1  A    between atoms: C_1  and  O_2
REMARK    2  A    between atoms: O_2  and  C_3
REMARK    3  A    between atoms: C_3  and  C_5
REMARK    4  A    between atoms: N_7  and  C_8
REMARK    5  A    between atoms: C_8  and  C_9
REMARK    6  A    between atoms: C_9  and  O_10
REMARK    7  A    between atoms: O_10  and  C_11
REMARK    8  A    between atoms: C_16  and  O_17
REMARK    9  A    between atoms: O_17  and  C_18
REMARK                            x       y       z     vdW  Elec       q    Type
REMARK                         _______ _______ _______ _____ _____    ______ ____
ROOT
ATOM      1  C   UNL     1       4.387   5.203  16.951  0.00  0.00    +0.000 A 
ATOM      2  C   UNL     1       4.086   6.452  17.469  0.00  0.00    +0.000 A 
ATOM      3  N   UNL     1       2.969   6.363  18.257  0.00  0.00    +0.000 N 
ATOM      4  C   UNL     1       2.543   5.049  18.297  0.00  0.00    +0.000 A 
ATOM      5  C   UNL     1       1.465   4.455  18.973  0.00  0.00    +0.000 A 
ATOM      6  C   UNL     1       1.274   3.077  18.835  0.00  0.00    +0.000 A 
ATOM      7  C   UNL     1       2.124   2.315  18.042  0.00  0.00    +0.000 A 
ATOM      8  C   UNL     1       3.189   2.914  17.365  0.00  0.00    +0.000 A 
ATOM      9  C   UNL     1       3.414   4.303  17.488  0.00  0.00    +0.000 A 
ENDROOT
BRANCH   1  10
ATOM     10  C   UNL     1       5.508   4.973  16.046  0.00  0.00    +0.000 C 
ATOM     11  O   UNL     1       5.609   5.533  14.956  0.00  0.00    +0.000 OA
BRANCH  10  13
ATOM     12  C   UNL     1       7.407   4.632  17.372  0.00  0.00    +0.000 C 
ATOM     13  O   UNL     1       6.410   4.072  16.520  0.00  0.00    +0.000 OA
ENDBRANCH  10  13
ENDBRANCH   1  10
BRANCH   3  14
ATOM     14  C   UNL     1       2.305   7.475  18.936  0.00  0.00    +0.000 C 
BRANCH  14  15
ATOM     15  C   UNL     1       2.280   8.757  18.107  0.00  0.00    +0.000 C 
BRANCH  15  16
ATOM     16  O   UNL     1       0.966   9.101  17.657  0.00  0.00    +0.000 OA
BRANCH  16  17
ATOM     17  C   UNL     1       0.362  10.086  18.413  0.00  0.00    +0.000 A 
ATOM     18  C   UNL     1       1.110  10.910  19.281  0.00  0.00    +0.000 A 
ATOM     19  C   UNL     1       0.504  11.899  20.057  0.00  0.00    +0.000 A 
ATOM     20  C   UNL     1      -0.861  12.102  19.961  0.00  0.00    +0.000 A 
ATOM     21  C   UNL     1      -1.611  11.319  19.085  0.00  0.00    +0.000 A 
ATOM     22  C   UNL     1      -1.020  10.309  18.304  0.00  0.00    +0.000 A 
BRANCH  22  23
ATOM     23  O   UNL     1      -1.944   9.659  17.534  0.00  0.00    +0.000 OA
ATOM     24  C   UNL     1      -2.368  10.248  16.318  0.00  0.00    +0.000 C 
ENDBRANCH  22  23
ENDBRANCH  16  17
ENDBRANCH  15  16
ENDBRANCH  14  15
ENDBRANCH   3  14
TORSDOF 7
ENDMDL
MODEL 9
REMARK VINA RESULT:      -6.9      3.669      5.352
REMARK  Name = 
REMARK  9 active torsions:
REMARK  status: ('A' for Active; 'I' for Inactive)
REMARK    1  A    between atoms: C_1  and  O_2
REMARK    2  A    between atoms: O_2  and  C_3
REMARK    3  A    between atoms: C_3  and  C_5
REMARK    4  A    between atoms: N_7  and  C_8
REMARK    5  A    between atoms: C_8  and  C_9
REMARK    6  A    between atoms: C_9  and  O_10
REMARK    7  A    between atoms: O_10  and  C_11
REMARK    8  A    between atoms: C_16  and  O_17
REMARK    9  A    between atoms: O_17  and  C_18
REMARK                            x       y       z     vdW  Elec       q    Type
REMARK                         _______ _______ _______ _____ _____    ______ ____
ROOT
ATOM      1  C   UNL     1       5.371   5.182  17.787  0.00  0.00    +0.000 A 
ATOM      2  C   UNL     1       4.996   6.515  17.834  0.00  0.00    +0.000 A 
ATOM      3  N   UNL     1       3.630   6.605  17.855  0.00  0.00    +0.000 N 
ATOM      4  C   UNL     1       3.089   5.333  17.860  0.00  0.00    +0.000 A 
ATOM      5  C   UNL     1       1.751   4.906  17.894  0.00  0.00    +0.000 A 
ATOM      6  C   UNL     1       1.495   3.533  17.898  0.00  0.00    +0.000 A 
ATOM      7  C   UNL     1       2.535   2.611  17.860  0.00  0.00    +0.000 A 
ATOM      8  C   UNL     1       3.863   3.044  17.816  0.00  0.00    +0.000 A 
ATOM      9  C   UNL     1       4.158   4.425  17.818  0.00  0.00    +0.000 A 
ENDROOT
BRANCH   1  10
ATOM     10  C   UNL     1       6.765   4.756  17.725  0.00  0.00    +0.000 C 
ATOM     11  O   UNL     1       7.563   4.956  18.639  0.00  0.00    +0.000 OA
BRANCH  10  13
ATOM     12  C   UNL     1       6.888   4.940  15.395  0.00  0.00    +0.000 C 
ATOM     13  O   UNL     1       7.090   4.139  16.558  0.00  0.00    +0.000 OA
ENDBRANCH  10  13
ENDBRANCH   1  10
BRANCH   3  14
ATOM     14  C   UNL     1       2.850   7.842  17.850  0.00  0.00    +0.000 C 
BRANCH  14  15
ATOM     15  C   UNL     1       2.146   8.116  19.177  0.00  0.00    +0.000 C 
BRANCH  15  16
ATOM     16  O   UNL     1       1.178   9.165  19.085  0.00  0.00    +0.000 OA
BRANCH  16  17
ATOM     17  C   UNL     1       0.626   9.516  20.301  0.00  0.00    +0.000 A 
ATOM     18  C   UNL     1       0.278   8.542  21.260  0.00  0.00    +0.000 A 
ATOM     19  C   UNL     1      -0.292   8.888  22.485  0.00  0.00    +0.000 A 
ATOM     20  C   UNL     1      -0.502  10.222  22.789  0.00  0.00    +0.000 A 
ATOM     21  C   UNL     1      -0.136  11.201  21.866  0.00  0.00    +0.000 A 
ATOM     22  C   UNL     1       0.429  10.869  20.621  0.00  0.00    +0.000 A 
BRANCH  22  23
ATOM     23  O   UNL     1       0.693  11.984  19.872  0.00  0.00    +0.000 OA
ATOM     24  C   UNL     1       1.739  12.851  20.270  0.00  0.00    +0.000 C 
ENDBRANCH  22  23
ENDBRANCH  16  17
ENDBRANCH  15  16
ENDBRANCH  14  15
ENDBRANCH   3  14
TORSDOF 7
ENDMDL
