MODEL 1
REMARK VINA RESULT:      -8.6      0.000      0.000
REMARK  Name = 
REMARK  6 active torsions:
REMARK  status: ('A' for Active; 'I' for Inactive)
REMARK    1  A    between atoms: C_1  and  C_2
REMARK    2  A    between atoms: N_4  and  C_5
REMARK    3  A    between atoms: N_4  and  C_17
REMARK    4  A    between atoms: C_5  and  C_6
REMARK    5  A    between atoms: C_8  and  O_9
REMARK    6  A    between atoms: C_22  and  C_23
REMARK                            x       y       z     vdW  Elec       q    Type
REMARK                         _______ _______ _______ _____ _____    ______ ____
ROOT
ATOM      1  C   UNL     1       4.674   3.936  18.820  0.00  0.00    +0.000 C 
ENDROOT
BRANCH   1   2
ATOM      2  C   UNL     1       5.784   4.708  18.112  0.00  0.00    +0.000 A 
ATOM      3  C   UNL     1       6.649   5.523  18.851  0.00  0.00    +0.000 A 
ATOM      4  C   UNL     1       7.547   6.328  18.182  0.00  0.00    +0.000 A 
ATOM      5  N   UNL     1       7.723   6.324  16.858  0.00  0.00    +0.000 NA
ATOM      6  C   UNL     1       6.996   5.466  16.138  0.00  0.00    +0.000 A 
ATOM      7  C   UNL     1       7.232   5.417  14.772  0.00  0.00    +0.000 A 
ATOM      8  C   UNL     1       6.583   4.506  13.943  0.00  0.00    +0.000 A 
ATOM      9  C   UNL     1       5.652   3.633  14.485  0.00  0.00    +0.000 A 
ATOM     10  C   UNL     1       5.357   3.691  15.850  0.00  0.00    +0.000 A 
ATOM     11  C   UNL     1       6.016   4.604  16.711  0.00  0.00    +0.000 A 
BRANCH   4  12
ATOM     12  O   UNL     1       8.319   7.224  18.864  0.00  0.00    +0.000 OA
ATOM     13  H   UNL     1       7.757   7.630  19.542  0.00  0.00    +0.000 HD
ENDBRANCH   4  12
ENDBRANCH   1   2
BRANCH   1  17
ATOM     14  C   UNL     1       2.721   2.022  17.612  0.00  0.00    +0.000 C 
ATOM     15  C   UNL     1       2.339   3.453  17.881  0.00  0.00    +0.000 C 
ATOM     16  O   UNL     1       1.208   3.814  17.540  0.00  0.00    +0.000 OA
ATOM     17  N   UNL     1       3.281   4.314  18.456  0.00  0.00    +0.000 N 
BRANCH  17  18
ATOM     18  C   UNL     1       2.833   5.653  18.753  0.00  0.00    +0.000 A 
ATOM     19  C   UNL     1       3.090   6.645  17.782  0.00  0.00    +0.000 A 
ATOM     20  C   UNL     1       2.698   7.968  17.962  0.00  0.00    +0.000 A 
ATOM     21  C   UNL     1       2.076   8.337  19.143  0.00  0.00    +0.000 A 
ATOM     22  C   UNL     1       1.836   7.378  20.131  0.00  0.00    +0.000 A 
ATOM     23  C   UNL     1       2.208   6.028  19.956  0.00  0.00    +0.000 A 
ATOM     24  C   UNL     1       1.983   5.092  21.109  0.00  0.00    +0.000 C 
ENDBRANCH  17  18
ENDBRANCH   1  17
TORSDOF 4
ENDMDL
MODEL 2
REMARK VINA RESULT:      -8.1      0.486      1.485
REMARK  Name = 
REMARK  6 active torsions:
REMARK  status: ('A' for Active; 'I' for Inactive)
REMARK    1  A    between atoms: C_1  and  C_2
REMARK    2  A    between atoms: N_4  and  C_5
REMARK    3  A    between atoms: N_4  and  C_17
REMARK    4  A    between atoms: C_5  and  C_6
REMARK    5  A    between atoms: C_8  and  O_9
REMARK    6  A    between atoms: C_22  and  C_23
REMARK                            x       y       z     vdW  Elec       q    Type
REMARK                         _______ _______ _______ _____ _____    ______ ____
ROOT
ATOM      1  C   UNL     1       4.537   3.916  19.099  0.00  0.00    +0.000 C 
ENDROOT
BRANCH   1   2
ATOM      2  C   UNL     1       5.694   4.634  18.408  0.00  0.00    +0.000 A 
ATOM      3  C   UNL     1       6.599   5.388  19.164  0.00  0.00    +0.000 A 
ATOM      4  C   UNL     1       7.545   6.151  18.511  0.00  0.00    +0.000 A 
ATOM      5  N   UNL     1       7.728   6.157  17.187  0.00  0.00    +0.000 NA
ATOM      6  C   UNL     1       6.958   5.351  16.451  0.00  0.00    +0.000 A 
ATOM      7  C   UNL     1       7.199   5.309  15.086  0.00  0.00    +0.000 A 
ATOM      8  C   UNL     1       6.504   4.448  14.240  0.00  0.00    +0.000 A 
ATOM      9  C   UNL     1       5.521   3.621  14.765  0.00  0.00    +0.000 A 
ATOM     10  C   UNL     1       5.223   3.676  16.129  0.00  0.00    +0.000 A 
ATOM     11  C   UNL     1       5.927   4.538  17.007  0.00  0.00    +0.000 A 
BRANCH   4  12
ATOM     12  O   UNL     1       8.362   6.992  19.210  0.00  0.00    +0.000 OA
ATOM     13  H   UNL     1       8.440   7.810  18.697  0.00  0.00    +0.000 HD
ENDBRANCH   4  12
ENDBRANCH   1   2
BRANCH   1  17
ATOM     14  C   UNL     1       2.665   2.216  17.506  0.00  0.00    +0.000 C 
ATOM     15  C   UNL     1       2.266   3.595  17.958  0.00  0.00    +0.000 C 
ATOM     16  O   UNL     1       1.158   4.011  17.603  0.00  0.00    +0.000 OA
ATOM     17  N   UNL     1       3.170   4.356  18.709  0.00  0.00    +0.000 N 
BRANCH  17  18
ATOM     18  C   UNL     1       2.703   5.640  19.170  0.00  0.00    +0.000 A 
ATOM     19  C   UNL     1       1.990   5.664  20.388  0.00  0.00    +0.000 A 
ATOM     20  C   UNL     1       1.497   6.847  20.928  0.00  0.00    +0.000 A 
ATOM     21  C   UNL     1       1.673   8.034  20.235  0.00  0.00    +0.000 A 
ATOM     22  C   UNL     1       2.351   8.032  19.014  0.00  0.00    +0.000 A 
ATOM     23  C   UNL     1       2.875   6.844  18.462  0.00  0.00    +0.000 A 
ATOM     24  C   UNL     1       3.514   6.932  17.106  0.00  0.00    +0.000 C 
ENDBRANCH  17  18
ENDBRANCH   1  17
TORSDOF 4
ENDMDL
MODEL 3
REMARK VINA RESULT:      -7.9      1.848      5.692
REMARK  Name = 
REMARK  6 active torsions:
REMARK  status: ('A' for Active; 'I' for Inactive)
REMARK    1  A    between atoms: C_1  and  C_2
REMARK    2  A    between atoms: N_4  and  C_5
REMARK    3  A    between atoms: N_4  and  C_17
REMARK    4  A    between atoms: C_5  and  C_6
REMARK    5  A    between atoms: C_8  and  O_9
REMARK    6  A    between atoms: C_22  and  C_23
REMARK                            x       y       z     vdW  Elec       q    Type
REMARK                         _______ _______ _______ _____ _____    ______ ____
ROOT
ATOM      1  C   UNL     1       4.471   5.660  16.365  0.00  0.00    +0.000 C 
ENDROOT
BRANCH   1   2
ATOM      2  C   UNL     1       3.934   4.716  17.437  0.00  0.00    +0.000 A 
ATOM      3  C   UNL     1       4.223   3.348  17.373  0.00  0.00    +0.000 A 
ATOM      4  C   UNL     1       3.606   2.491  18.261  0.00  0.00    +0.000 A 
ATOM      5  N   UNL     1       2.807   2.882  19.257  0.00  0.00    +0.000 NA
ATOM      6  C   UNL     1       2.612   4.194  19.417  0.00  0.00    +0.000 A 
ATOM      7  C   UNL     1       1.838   4.597  20.495  0.00  0.00    +0.000 A 
ATOM      8  C   UNL     1       1.635   5.942  20.795  0.00  0.00    +0.000 A 
ATOM      9  C   UNL     1       2.199   6.915  19.983  0.00  0.00    +0.000 A 
ATOM     10  C   UNL     1       2.944   6.539  18.862  0.00  0.00    +0.000 A 
ATOM     11  C   UNL     1       3.170   5.176  18.548  0.00  0.00    +0.000 A 
BRANCH   4  12
ATOM     12  O   UNL     1       3.770   1.140  18.148  0.00  0.00    +0.000 OA
ATOM     13  H   UNL     1       2.892   0.737  18.222  0.00  0.00    +0.000 HD
ENDBRANCH   4  12
ENDBRANCH   1   2
BRANCH   1  17
ATOM     14  C   UNL     1       5.788   4.221  14.100  0.00  0.00    +0.000 C 
ATOM     15  C   UNL     1       6.602   4.974  15.118  0.00  0.00    +0.000 C 
ATOM     16  O   UNL     1       7.832   4.933  15.006  0.00  0.00    +0.000 OA
ATOM     17  N   UNL     1       5.945   5.642  16.158  0.00  0.00    +0.000 N 
BRANCH  17  18
ATOM     18  C   UNL     1       6.775   6.402  17.061  0.00  0.00    +0.000 A 
ATOM     19  C   UNL     1       6.923   7.780  16.789  0.00  0.00    +0.000 A 
ATOM     20  C   UNL     1       7.697   8.608  17.595  0.00  0.00    +0.000 A 
ATOM     21  C   UNL     1       8.377   8.065  18.672  0.00  0.00    +0.000 A 
ATOM     22  C   UNL     1       8.269   6.699  18.944  0.00  0.00    +0.000 A 
ATOM     23  C   UNL     1       7.471   5.848  18.150  0.00  0.00    +0.000 A 
ATOM     24  C   UNL     1       7.487   4.381  18.474  0.00  0.00    +0.000 C 
ENDBRANCH  17  18
ENDBRANCH   1  17
TORSDOF 4
ENDMDL
MODEL 4
REMARK VINA RESULT:      -7.8      1.432      3.370
REMARK  Name = 
REMARK  6 active torsions:
REMARK  status: ('A' for Active; 'I' for Inactive)
REMARK    1  A    between atoms: C_1  and  C_2
REMARK    2  A    between atoms: N_4  and  C_5
REMARK    3  A    between atoms: N_4  and  C_17
REMARK    4  A    between atoms: C_5  and  C_6
REMARK    5  A    between atoms: C_8  and  O_9
REMARK    6  A    between atoms: C_22  and  C_23
REMARK                            x       y       z     vdW  Elec       q    Type
REMARK                         _______ _______ _______ _____ _____    ______ ____
ROOT
ATOM      1  C   UNL     1       3.921   6.386  18.611  0.00  0.00    +0.000 C 
ENDROOT
BRANCH   1   2
ATOM      2  C   UNL     1       5.302   5.813  18.300  0.00  0.00    +0.000 A 
ATOM      3  C   UNL     1       6.266   5.727  19.310  0.00  0.00    +0.000 A 
ATOM      4  C   UNL     1       7.551   5.350  18.979  0.00  0.00    +0.000 A 
ATOM      5  N   UNL     1       7.934   4.965  17.759  0.00  0.00    +0.000 NA
ATOM      6  C   UNL     1       7.004   4.919  16.802  0.00  0.00    +0.000 A 
ATOM      7  C   UNL     1       7.392   4.452  15.555  0.00  0.00    +0.000 A 
ATOM      8  C   UNL     1       6.484   4.295  14.511  0.00  0.00    +0.000 A 
ATOM      9  C   UNL     1       5.154   4.636  14.705  0.00  0.00    +0.000 A 
ATOM     10  C   UNL     1       4.742   5.155  15.936  0.00  0.00    +0.000 A 
ATOM     11  C   UNL     1       5.650   5.312  17.013  0.00  0.00    +0.000 A 
BRANCH   4  12
ATOM     12  O   UNL     1       8.545   5.374  19.915  0.00  0.00    +0.000 OA
ATOM     13  H   UNL     1       9.090   4.585  19.777  0.00  0.00    +0.000 HD
ENDBRANCH   4  12
ENDBRANCH   1   2
BRANCH   1  17
ATOM     14  C   UNL     1       1.858   7.369  20.537  0.00  0.00    +0.000 C 
ATOM     15  C   UNL     1       2.013   5.899  20.250  0.00  0.00    +0.000 C 
ATOM     16  O   UNL     1       1.290   5.118  20.877  0.00  0.00    +0.000 OA
ATOM     17  N   UNL     1       2.987   5.482  19.335  0.00  0.00    +0.000 N 
BRANCH  17  18
ATOM     18  C   UNL     1       3.040   4.068  19.051  0.00  0.00    +0.000 A 
ATOM     19  C   UNL     1       3.988   3.306  19.768  0.00  0.00    +0.000 A 
ATOM     20  C   UNL     1       4.123   1.935  19.576  0.00  0.00    +0.000 A 
ATOM     21  C   UNL     1       3.337   1.300  18.629  0.00  0.00    +0.000 A 
ATOM     22  C   UNL     1       2.411   2.039  17.888  0.00  0.00    +0.000 A 
ATOM     23  C   UNL     1       2.246   3.427  18.084  0.00  0.00    +0.000 A 
ATOM     24  C   UNL     1       1.285   4.145  17.180  0.00  0.00    +0.000 C 
ENDBRANCH  17  18
ENDBRANCH   1  17
TORSDOF 4
ENDMDL
MODEL 5
REMARK VINA RESULT:      -7.7      1.973      5.157
REMARK  Name = 
REMARK  6 active torsions:
REMARK  status: ('A' for Active; 'I' for Inactive)
REMARK    1  A    between atoms: C_1  and  C_2
REMARK    2  A    between atoms: N_4  and  C_5
REMARK    3  A    between atoms: N_4  and  C_17
REMARK    4  A    between atoms: C_5  and  C_6
REMARK    5  A    between atoms: C_8  and  O_9
REMARK    6  A    between atoms: C_22  and  C_23
REMARK                            x       y       z     vdW  Elec       q    Type
REMARK                         _______ _______ _______ _____ _____    ______ ____
ROOT
ATOM      1  C   UNL     1       4.421   6.255  16.308  0.00  0.00    +0.000 C 
ENDROOT
BRANCH   1   2
ATOM      2  C   UNL     1       3.680   5.904  17.595  0.00  0.00    +0.000 A 
ATOM      3  C   UNL     1       3.157   6.922  18.401  0.00  0.00    +0.000 A 
ATOM      4  C   UNL     1       2.626   6.596  19.632  0.00  0.00    +0.000 A 
ATOM      5  N   UNL     1       2.485   5.348  20.087  0.00  0.00    +0.000 NA
ATOM      6  C   UNL     1       2.862   4.349  19.285  0.00  0.00    +0.000 A 
ATOM      7  C   UNL     1       2.650   3.054  19.734  0.00  0.00    +0.000 A 
ATOM      8  C   UNL     1       2.938   1.943  18.945  0.00  0.00    +0.000 A 
ATOM      9  C   UNL     1       3.478   2.125  17.681  0.00  0.00    +0.000 A 
ATOM     10  C   UNL     1       3.749   3.416  17.220  0.00  0.00    +0.000 A 
ATOM     11  C   UNL     1       3.452   4.559  18.004  0.00  0.00    +0.000 A 
BRANCH   4  12
ATOM     12  O   UNL     1       2.221   7.574  20.494  0.00  0.00    +0.000 OA
ATOM     13  H   UNL     1       1.295   7.395  20.718  0.00  0.00    +0.000 HD
ENDBRANCH   4  12
ENDBRANCH   1   2
BRANCH   1  17
ATOM     14  C   UNL     1       5.577   4.406  14.264  0.00  0.00    +0.000 C 
ATOM     15  C   UNL     1       6.443   5.022  15.331  0.00  0.00    +0.000 C 
ATOM     16  O   UNL     1       7.634   4.696  15.355  0.00  0.00    +0.000 OA
ATOM     17  N   UNL     1       5.863   5.890  16.264  0.00  0.00    +0.000 N 
BRANCH  17  18
ATOM     18  C   UNL     1       6.756   6.502  17.217  0.00  0.00    +0.000 A 
ATOM     19  C   UNL     1       7.192   7.815  16.935  0.00  0.00    +0.000 A 
ATOM     20  C   UNL     1       8.052   8.501  17.787  0.00  0.00    +0.000 A 
ATOM     21  C   UNL     1       8.529   7.870  18.923  0.00  0.00    +0.000 A 
ATOM     22  C   UNL     1       8.134   6.560  19.208  0.00  0.00    +0.000 A 
ATOM     23  C   UNL     1       7.246   5.857  18.366  0.00  0.00    +0.000 A 
ATOM     24  C   UNL     1       6.949   4.426  18.714  0.00  0.00    +0.000 C 
ENDBRANCH  17  18
ENDBRANCH   1  17
TORSDOF 4
ENDMDL
MODEL 6
REMARK VINA RESULT:      -7.5      1.744      3.387
REMARK  Name = 
REMARK  6 active torsions:
REMARK  status: ('A' for Active; 'I' for Inactive)
REMARK    1  A    between atoms: C_1  and  C_2
REMARK    2  A    between atoms: N_4  and  C_5
REMARK    3  A    between atoms: N_4  and  C_17
REMARK    4  A    between atoms: C_5  and  C_6
REMARK    5  A    between atoms: C_8  and  O_9
REMARK    6  A    between atoms: C_22  and  C_23
REMARK                            x       y       z     vdW  Elec       q    Type
REMARK                         _______ _______ _______ _____ _____    ______ ____
ROOT
ATOM      1  C   UNL     1       3.242   6.319  17.961  0.00  0.00    +0.000 C 
ENDROOT
BRANCH   1   2
ATOM      2  C   UNL     1       4.661   5.761  18.029  0.00  0.00    +0.000 A 
ATOM      3  C   UNL     1       5.348   5.743  19.248  0.00  0.00    +0.000 A 
ATOM      4  C   UNL     1       6.678   5.377  19.263  0.00  0.00    +0.000 A 
ATOM      5  N   UNL     1       7.353   4.942  18.196  0.00  0.00    +0.000 NA
ATOM      6  C   UNL     1       6.688   4.831  17.043  0.00  0.00    +0.000 A 
ATOM      7  C   UNL     1       7.375   4.313  15.956  0.00  0.00    +0.000 A 
ATOM      8  C   UNL     1       6.754   4.088  14.730  0.00  0.00    +0.000 A 
ATOM      9  C   UNL     1       5.414   4.410  14.573  0.00  0.00    +0.000 A 
ATOM     10  C   UNL     1       4.708   4.979  15.637  0.00  0.00    +0.000 A 
ATOM     11  C   UNL     1       5.320   5.206  16.895  0.00  0.00    +0.000 A 
BRANCH   4  12
ATOM     12  O   UNL     1       7.409   5.466  20.412  0.00  0.00    +0.000 OA
ATOM     13  H   UNL     1       8.052   6.181  20.290  0.00  0.00    +0.000 HD
ENDBRANCH   4  12
ENDBRANCH   1   2
BRANCH   1  17
ATOM     14  C   UNL     1       2.137   8.708  19.377  0.00  0.00    +0.000 C 
ATOM     15  C   UNL     1       1.915   7.318  19.912  0.00  0.00    +0.000 C 
ATOM     16  O   UNL     1       1.303   7.210  20.979  0.00  0.00    +0.000 OA
ATOM     17  N   UNL     1       2.443   6.226  19.213  0.00  0.00    +0.000 N 
BRANCH  17  18
ATOM     18  C   UNL     1       2.138   4.917  19.737  0.00  0.00    +0.000 A 
ATOM     19  C   UNL     1       2.461   4.678  21.091  0.00  0.00    +0.000 A 
ATOM     20  C   UNL     1       2.207   3.454  21.700  0.00  0.00    +0.000 A 
ATOM     21  C   UNL     1       1.660   2.423  20.954  0.00  0.00    +0.000 A 
ATOM     22  C   UNL     1       1.357   2.628  19.605  0.00  0.00    +0.000 A 
ATOM     23  C   UNL     1       1.588   3.870  18.976  0.00  0.00    +0.000 A 
ATOM     24  C   UNL     1       1.308   3.964  17.504  0.00  0.00    +0.000 C 
ENDBRANCH  17  18
ENDBRANCH   1  17
TORSDOF 4
ENDMDL
MODEL 7
REMARK VINA RESULT:      -7.2      1.361      3.251
REMARK  Name = 
REMARK  6 active torsions:
REMARK  status: ('A' for Active; 'I' for Inactive)
REMARK    1  A    between atoms: C_1  and  C_2
REMARK    2  A    between atoms: N_4  and  C_5
REMARK    3  A    between atoms: N_4  and  C_17
REMARK    4  A    between atoms: C_5  and  C_6
REMARK    5  A    between atoms: C_8  and  O_9
REMARK    6  A    between atoms: C_22  and  C_23
REMARK                            x       y       z     vdW  Elec       q    Type
REMARK                         _______ _______ _______ _____ _____    ______ ____
ROOT
ATOM      1  C   UNL     1       3.442   6.739  17.344  0.00  0.00    +0.000 C 
ENDROOT
BRANCH   1   2
ATOM      2  C   UNL     1       4.933   6.612  17.040  0.00  0.00    +0.000 A 
ATOM      3  C   UNL     1       5.861   7.366  17.767  0.00  0.00    +0.000 A 
ATOM      4  C   UNL     1       7.185   7.353  17.380  0.00  0.00    +0.000 A 
ATOM      5  N   UNL     1       7.678   6.590  16.401  0.00  0.00    +0.000 NA
ATOM      6  C   UNL     1       6.835   5.768  15.771  0.00  0.00    +0.000 A 
ATOM      7  C   UNL     1       7.365   4.928  14.803  0.00  0.00    +0.000 A 
ATOM      8  C   UNL     1       6.587   3.982  14.140  0.00  0.00    +0.000 A 
ATOM      9  C   UNL     1       5.235   3.884  14.433  0.00  0.00    +0.000 A 
ATOM     10  C   UNL     1       4.662   4.750  15.369  0.00  0.00    +0.000 A 
ATOM     11  C   UNL     1       5.440   5.711  16.060  0.00  0.00    +0.000 A 
BRANCH   4  12
ATOM     12  O   UNL     1       8.094   8.171  17.988  0.00  0.00    +0.000 OA
ATOM     13  H   UNL     1       8.914   8.120  17.476  0.00  0.00    +0.000 HD
ENDBRANCH   4  12
ENDBRANCH   1   2
BRANCH   1  17
ATOM     14  C   UNL     1       2.053   7.966  19.688  0.00  0.00    +0.000 C 
ATOM     15  C   UNL     1       2.294   6.481  19.620  0.00  0.00    +0.000 C 
ATOM     16  O   UNL     1       1.939   5.802  20.589  0.00  0.00    +0.000 OA
ATOM     17  N   UNL     1       2.941   5.946  18.499  0.00  0.00    +0.000 N 
BRANCH  17  18
ATOM     18  C   UNL     1       3.081   4.511  18.461  0.00  0.00    +0.000 A 
ATOM     19  C   UNL     1       2.012   3.778  17.901  0.00  0.00    +0.000 A 
ATOM     20  C   UNL     1       2.042   2.390  17.810  0.00  0.00    +0.000 A 
ATOM     21  C   UNL     1       3.130   1.699  18.318  0.00  0.00    +0.000 A 
ATOM     22  C   UNL     1       4.187   2.402  18.903  0.00  0.00    +0.000 A 
ATOM     23  C   UNL     1       4.183   3.811  18.984  0.00  0.00    +0.000 A 
ATOM     24  C   UNL     1       5.325   4.467  19.705  0.00  0.00    +0.000 C 
ENDBRANCH  17  18
ENDBRANCH   1  17
TORSDOF 4
ENDMDL
MODEL 8
REMARK VINA RESULT:      -7.2      1.860      5.489
REMARK  Name = 
REMARK  6 active torsions:
REMARK  status: ('A' for Active; 'I' for Inactive)
REMARK    1  A    between atoms: C_1  and  C_2
REMARK    2  A    between atoms: N_4  and  C_5
REMARK    3  A    between atoms: N_4  and  C_17
REMARK    4  A    between atoms: C_5  and  C_6
REMARK    5  A    between atoms: C_8  and  O_9
REMARK    6  A    between atoms: C_22  and  C_23
REMARK                            x       y       z     vdW  Elec       q    Type
REMARK                         _______ _______ _______ _____ _____    ______ ____
ROOT
ATOM      1  C   UNL     1       4.550   5.062  16.146  0.00  0.00    +0.000 C 
ENDROOT
BRANCH   1   2
ATOM      2  C   UNL     1       4.154   4.834  17.603  0.00  0.00    +0.000 A 
ATOM      3  C   UNL     1       4.563   3.670  18.264  0.00  0.00    +0.000 A 
ATOM      4  C   UNL     1       4.072   3.409  19.527  0.00  0.00    +0.000 A 
ATOM      5  N   UNL     1       3.292   4.242  20.220  0.00  0.00    +0.000 NA
ATOM      6  C   UNL     1       2.987   5.417  19.662  0.00  0.00    +0.000 A 
ATOM      7  C   UNL     1       2.234   6.306  20.414  0.00  0.00    +0.000 A 
ATOM      8  C   UNL     1       1.926   7.584  19.955  0.00  0.00    +0.000 A 
ATOM      9  C   UNL     1       2.358   7.980  18.698  0.00  0.00    +0.000 A 
ATOM     10  C   UNL     1       3.076   7.089  17.897  0.00  0.00    +0.000 A 
ATOM     11  C   UNL     1       3.409   5.789  18.352  0.00  0.00    +0.000 A 
BRANCH   4  12
ATOM     12  O   UNL     1       4.352   2.227  20.149  0.00  0.00    +0.000 OA
ATOM     13  H   UNL     1       3.735   2.139  20.892  0.00  0.00    +0.000 HD
ENDBRANCH   4  12
ENDBRANCH   1   2
BRANCH   1  17
ATOM     14  C   UNL     1       6.028   4.045  13.756  0.00  0.00    +0.000 C 
ATOM     15  C   UNL     1       6.721   4.884  14.797  0.00  0.00    +0.000 C 
ATOM     16  O   UNL     1       7.929   5.092  14.648  0.00  0.00    +0.000 OA
ATOM     17  N   UNL     1       5.989   5.347  15.897  0.00  0.00    +0.000 N 
BRANCH  17  18
ATOM     18  C   UNL     1       6.691   6.202  16.823  0.00  0.00    +0.000 A 
ATOM     19  C   UNL     1       6.529   7.595  16.656  0.00  0.00    +0.000 A 
ATOM     20  C   UNL     1       7.157   8.512  17.494  0.00  0.00    +0.000 A 
ATOM     21  C   UNL     1       7.996   8.053  18.496  0.00  0.00    +0.000 A 
ATOM     22  C   UNL     1       8.193   6.680  18.662  0.00  0.00    +0.000 A 
ATOM     23  C   UNL     1       7.548   5.735  17.835  0.00  0.00    +0.000 A 
ATOM     24  C   UNL     1       7.890   4.287  18.039  0.00  0.00    +0.000 C 
ENDBRANCH  17  18
ENDBRANCH   1  17
TORSDOF 4
ENDMDL
MODEL 9
REMARK VINA RESULT:      -7.1      2.075      5.655
REMARK  Name = 
REMARK  6 active torsions:
REMARK  status: ('A' for Active; 'I' for Inactive)
REMARK    1  A    between atoms: C_1  and  C_2
REMARK    2  A    between atoms: N_4  and  C_5
REMARK    3  A    between atoms: N_4  and  C_17
REMARK    4  A    between atoms: C_5  and  C_6
REMARK    5  A    between atoms: C_8  and  O_9
REMARK    6  A    between atoms: C_22  and  C_23
REMARK                            x       y       z     vdW  Elec       q    Type
REMARK                         _______ _______ _______ _____ _____    ______ ____
ROOT
ATOM      1  C   UNL     1       4.069   4.295  15.901  0.00  0.00    +0.000 C 
ENDROOT
BRANCH   1   2
ATOM      2  C   UNL     1       3.778   3.629  17.243  0.00  0.00    +0.000 A 
ATOM      3  C   UNL     1       4.162   2.301  17.462  0.00  0.00    +0.000 A 
ATOM      4  C   UNL     1       3.758   1.669  18.620  0.00  0.00    +0.000 A 
ATOM      5  N   UNL     1       3.091   2.265  19.612  0.00  0.00    +0.000 NA
ATOM      6  C   UNL     1       2.818   3.566  19.483  0.00  0.00    +0.000 A 
ATOM      7  C   UNL     1       2.187   4.196  20.545  0.00  0.00    +0.000 A 
ATOM      8  C   UNL     1       1.926   5.564  20.543  0.00  0.00    +0.000 A 
ATOM      9  C   UNL     1       2.280   6.325  19.438  0.00  0.00    +0.000 A 
ATOM     10  C   UNL     1       2.874   5.710  18.333  0.00  0.00    +0.000 A 
ATOM     11  C   UNL     1       3.158   4.321  18.322  0.00  0.00    +0.000 A 
BRANCH   4  12
ATOM     12  O   UNL     1       4.010   0.341  18.809  0.00  0.00    +0.000 OA
ATOM     13  H   UNL     1       4.300  -0.021  17.959  0.00  0.00    +0.000 HD
ENDBRANCH   4  12
ENDBRANCH   1   2
BRANCH   1  17
ATOM     14  C   UNL     1       5.379   3.741  13.272  0.00  0.00    +0.000 C 
ATOM     15  C   UNL     1       6.152   4.353  14.410  0.00  0.00    +0.000 C 
ATOM     16  O   UNL     1       7.354   4.570  14.228  0.00  0.00    +0.000 OA
ATOM     17  N   UNL     1       5.498   4.604  15.622  0.00  0.00    +0.000 N 
BRANCH  17  18
ATOM     18  C   UNL     1       6.274   5.255  16.649  0.00  0.00    +0.000 A 
ATOM     19  C   UNL     1       7.185   4.452  17.369  0.00  0.00    +0.000 A 
ATOM     20  C   UNL     1       7.986   4.977  18.378  0.00  0.00    +0.000 A 
ATOM     21  C   UNL     1       7.862   6.314  18.719  0.00  0.00    +0.000 A 
ATOM     22  C   UNL     1       6.947   7.121  18.039  0.00  0.00    +0.000 A 
ATOM     23  C   UNL     1       6.142   6.611  16.998  0.00  0.00    +0.000 A 
ATOM     24  C   UNL     1       5.131   7.538  16.386  0.00  0.00    +0.000 C 
ENDBRANCH  17  18
ENDBRANCH   1  17
TORSDOF 4
ENDMDL
