MODEL 1
REMARK VINA RESULT:      -7.5      0.000      0.000
REMARK  Name = 
REMARK  12 active torsions:
REMARK  status: ('A' for Active; 'I' for Inactive)
REMARK    1  A    between atoms: N_5  and  N_6
REMARK    2  A    between atoms: C_7  and  C_8
REMARK    3  A    between atoms: C_8  and  O_9
REMARK    4  A    between atoms: C_8  and  C_10
REMARK    5  A    between atoms: C_10  and  O_11
REMARK    6  A    between atoms: C_10  and  C_12
REMARK    7  A    between atoms: C_12  and  O_13
REMARK    8  A    between atoms: C_12  and  C_14
REMARK    9  A    between atoms: C_14  and  O_15
REMARK   10  A    between atoms: C_14  and  C_16
REMARK   11  A    between atoms: C_16  and  O_17
REMARK   12  A    between atoms: C_20  and  C_21
REMARK                            x       y       z     vdW  Elec       q    Type
REMARK                         _______ _______ _______ _____ _____    ______ ____
ROOT
ATOM      1  O   UNL     1       3.000   2.583  20.440  0.00  0.00    +0.000 OA
ATOM      2  C   UNL     1       3.703   3.438  19.941  0.00  0.00    +0.000 C 
ATOM      3  N   UNL     1       4.946   3.289  19.379  0.00  0.00    +0.000 N 
ATOM      4  C   UNL     1       5.484   4.494  19.068  0.00  0.00    +0.000 C 
ATOM      5  N   UNL     1       6.708   4.583  18.691  0.00  0.00    +0.000 NA
ATOM      6  N   UNL     1       4.538   5.450  19.292  0.00  0.00    +0.000 N 
ATOM      7  C   UNL     1       3.417   4.913  19.844  0.00  0.00    +0.000 C 
ATOM      8  C   UNL     1       2.257   5.450  20.236  0.00  0.00    +0.000 C 
ATOM      9  H   UNL     1       5.449   2.418  19.356  0.00  0.00    +0.000 HD
ATOM     10  H   UNL     1       4.711   6.435  19.180  0.00  0.00    +0.000 HD
ENDROOT
BRANCH   8  11
ATOM     11  C   UNL     1       1.941   6.854  19.980  0.00  0.00    +0.000 A 
ATOM     12  C   UNL     1       1.342   7.604  21.000  0.00  0.00    +0.000 A 
ATOM     13  C   UNL     1       0.982   8.933  20.779  0.00  0.00    +0.000 A 
ATOM     14  C   UNL     1       1.222   9.514  19.536  0.00  0.00    +0.000 A 
ATOM     15 CL   UNL     1       0.766  11.150  19.259  0.00  0.00    +0.000 Cl
ATOM     16  C   UNL     1       1.820   8.777  18.514  0.00  0.00    +0.000 A 
ATOM     17  C   UNL     1       2.179   7.443  18.735  0.00  0.00    +0.000 A 
ENDBRANCH   8  11
BRANCH   5  18
ATOM     18  N   UNL     1       7.148   5.900  18.588  0.00  0.00    +0.000 NA
ATOM     19  C   UNL     1       6.882   6.445  17.434  0.00  0.00    +0.000 C 
BRANCH  19  20
ATOM     20  C   UNL     1       6.105   5.829  16.267  0.00  0.00    +0.000 C 
BRANCH  20  21
ATOM     21  O   UNL     1       5.471   6.801  15.443  0.00  0.00    +0.000 OA
ATOM     22  H   UNL     1       4.518   6.578  15.537  0.00  0.00    +0.000 HD
ENDBRANCH  20  21
BRANCH  20  23
ATOM     23  C   UNL     1       7.016   4.925  15.404  0.00  0.00    +0.000 C 
BRANCH  23  24
ATOM     24  O   UNL     1       8.002   4.294  16.221  0.00  0.00    +0.000 OA
ATOM     25  H   UNL     1       7.824   3.336  16.258  0.00  0.00    +0.000 HD
ENDBRANCH  23  24
BRANCH  23  26
ATOM     26  C   UNL     1       6.197   3.940  14.527  0.00  0.00    +0.000 C 
BRANCH  26  27
ATOM     27  O   UNL     1       4.848   3.892  15.005  0.00  0.00    +0.000 OA
ATOM     28  H   UNL     1       4.834   3.378  15.837  0.00  0.00    +0.000 HD
ENDBRANCH  26  27
BRANCH  26  29
ATOM     29  C   UNL     1       6.218   4.261  13.017  0.00  0.00    +0.000 C 
BRANCH  29  30
ATOM     30  O   UNL     1       7.538   4.656  12.626  0.00  0.00    +0.000 OA
ATOM     31  H   UNL     1       8.049   4.863  13.429  0.00  0.00    +0.000 HD
ENDBRANCH  29  30
BRANCH  29  32
ATOM     32  C   UNL     1       5.769   3.046  12.178  0.00  0.00    +0.000 C 
BRANCH  32  33
ATOM     33  O   UNL     1       6.893   2.293  11.727  0.00  0.00    +0.000 OA
ATOM     34  H   UNL     1       7.242   2.725  10.928  0.00  0.00    +0.000 HD
ENDBRANCH  32  33
ENDBRANCH  29  32
ENDBRANCH  26  29
ENDBRANCH  23  26
ENDBRANCH  20  23
ENDBRANCH  19  20
ENDBRANCH   5  18
TORSDOF 12
ENDMDL
MODEL 2
REMARK VINA RESULT:      -7.5      2.688      5.352
REMARK  Name = 
REMARK  12 active torsions:
REMARK  status: ('A' for Active; 'I' for Inactive)
REMARK    1  A    between atoms: N_5  and  N_6
REMARK    2  A    between atoms: C_7  and  C_8
REMARK    3  A    between atoms: C_8  and  O_9
REMARK    4  A    between atoms: C_8  and  C_10
REMARK    5  A    between atoms: C_10  and  O_11
REMARK    6  A    between atoms: C_10  and  C_12
REMARK    7  A    between atoms: C_12  and  O_13
REMARK    8  A    between atoms: C_12  and  C_14
REMARK    9  A    between atoms: C_14  and  O_15
REMARK   10  A    between atoms: C_14  and  C_16
REMARK   11  A    between atoms: C_16  and  O_17
REMARK   12  A    between atoms: C_20  and  C_21
REMARK                            x       y       z     vdW  Elec       q    Type
REMARK                         _______ _______ _______ _____ _____    ______ ____
ROOT
ATOM      1  O   UNL     1       4.982   7.078  15.226  0.00  0.00    +0.000 OA
ATOM      2  C   UNL     1       4.990   6.581  16.334  0.00  0.00    +0.000 C 
ATOM      3  N   UNL     1       5.840   5.621  16.823  0.00  0.00    +0.000 N 
ATOM      4  C   UNL     1       5.443   5.204  18.052  0.00  0.00    +0.000 C 
ATOM      5  N   UNL     1       6.003   4.192  18.609  0.00  0.00    +0.000 NA
ATOM      6  N   UNL     1       4.403   5.991  18.449  0.00  0.00    +0.000 N 
ATOM      7  C   UNL     1       4.034   6.854  17.464  0.00  0.00    +0.000 C 
ATOM      8  C   UNL     1       3.082   7.789  17.394  0.00  0.00    +0.000 C 
ATOM      9  H   UNL     1       6.557   5.175  16.276  0.00  0.00    +0.000 HD
ATOM     10  H   UNL     1       3.902   5.850  19.310  0.00  0.00    +0.000 HD
ENDROOT
BRANCH   8  11
ATOM     11  C   UNL     1       2.276   8.149  18.558  0.00  0.00    +0.000 A 
ATOM     12  C   UNL     1       1.544   9.342  18.527  0.00  0.00    +0.000 A 
ATOM     13  C   UNL     1       0.801   9.742  19.637  0.00  0.00    +0.000 A 
ATOM     14  C   UNL     1       0.789   8.947  20.780  0.00  0.00    +0.000 A 
ATOM     15 CL   UNL     1      -0.118   9.448  22.155  0.00  0.00    +0.000 Cl
ATOM     16  C   UNL     1       1.512   7.756  20.821  0.00  0.00    +0.000 A 
ATOM     17  C   UNL     1       2.260   7.355  19.710  0.00  0.00    +0.000 A 
ENDBRANCH   8  11
BRANCH   5  18
ATOM     18  N   UNL     1       5.358   3.791  19.776  0.00  0.00    +0.000 NA
ATOM     19  C   UNL     1       4.472   2.856  19.582  0.00  0.00    +0.000 C 
BRANCH  19  20
ATOM     20  C   UNL     1       4.142   2.140  18.269  0.00  0.00    +0.000 C 
BRANCH  20  21
ATOM     21  O   UNL     1       4.039   0.728  18.413  0.00  0.00    +0.000 OA
ATOM     22  H   UNL     1       4.033   0.608  19.389  0.00  0.00    +0.000 HD
ENDBRANCH  20  21
BRANCH  20  23
ATOM     23  C   UNL     1       2.843   2.698  17.639  0.00  0.00    +0.000 C 
BRANCH  23  24
ATOM     24  O   UNL     1       2.058   1.633  17.102  0.00  0.00    +0.000 OA
ATOM     25  H   UNL     1       2.610   1.098  16.501  0.00  0.00    +0.000 HD
ENDBRANCH  23  24
BRANCH  23  26
ATOM     26  C   UNL     1       2.071   3.621  18.619  0.00  0.00    +0.000 C 
BRANCH  26  27
ATOM     27  O   UNL     1       1.433   4.667  17.879  0.00  0.00    +0.000 OA
ATOM     28  H   UNL     1       1.892   5.508  18.075  0.00  0.00    +0.000 HD
ENDBRANCH  26  27
BRANCH  26  29
ATOM     29  C   UNL     1       1.042   2.890  19.508  0.00  0.00    +0.000 C 
BRANCH  29  30
ATOM     30  O   UNL     1       1.314   1.484  19.505  0.00  0.00    +0.000 OA
ATOM     31  H   UNL     1       1.839   1.269  20.296  0.00  0.00    +0.000 HD
ENDBRANCH  29  30
BRANCH  29  32
ATOM     32  C   UNL     1       1.072   3.422  20.956  0.00  0.00    +0.000 C 
BRANCH  32  33
ATOM     33  O   UNL     1       1.754   2.514  21.820  0.00  0.00    +0.000 OA
ATOM     34  H   UNL     1       1.133   2.242  22.518  0.00  0.00    +0.000 HD
ENDBRANCH  32  33
ENDBRANCH  29  32
ENDBRANCH  26  29
ENDBRANCH  23  26
ENDBRANCH  20  23
ENDBRANCH  19  20
ENDBRANCH   5  18
TORSDOF 12
ENDMDL
MODEL 3
REMARK VINA RESULT:      -7.4      0.772      1.851
REMARK  Name = 
REMARK  12 active torsions:
REMARK  status: ('A' for Active; 'I' for Inactive)
REMARK    1  A    between atoms: N_5  and  N_6
REMARK    2  A    between atoms: C_7  and  C_8
REMARK    3  A    between atoms: C_8  and  O_9
REMARK    4  A    between atoms: C_8  and  C_10
REMARK    5  A    between atoms: C_10  and  O_11
REMARK    6  A    between atoms: C_10  and  C_12
REMARK    7  A    between atoms: C_12  and  O_13
REMARK    8  A    between atoms: C_12  and  C_14
REMARK    9  A    between atoms: C_14  and  O_15
REMARK   10  A    between atoms: C_14  and  C_16
REMARK   11  A    between atoms: C_16  and  O_17
REMARK   12  A    between atoms: C_20  and  C_21
REMARK                            x       y       z     vdW  Elec       q    Type
REMARK                         _______ _______ _______ _____ _____    ______ ____
ROOT
ATOM      1  O   UNL     1       2.691   2.502  20.185  0.00  0.00    +0.000 OA
ATOM      2  C   UNL     1       3.476   3.374  19.873  0.00  0.00    +0.000 C 
ATOM      3  N   UNL     1       4.800   3.239  19.537  0.00  0.00    +0.000 N 
ATOM      4  C   UNL     1       5.391   4.452  19.400  0.00  0.00    +0.000 C 
ATOM      5  N   UNL     1       6.664   4.544  19.256  0.00  0.00    +0.000 NA
ATOM      6  N   UNL     1       4.424   5.407  19.505  0.00  0.00    +0.000 N 
ATOM      7  C   UNL     1       3.219   4.856  19.814  0.00  0.00    +0.000 C 
ATOM      8  C   UNL     1       2.010   5.387  20.020  0.00  0.00    +0.000 C 
ATOM      9  H   UNL     1       5.296   2.363  19.553  0.00  0.00    +0.000 HD
ATOM     10  H   UNL     1       4.619   6.394  19.485  0.00  0.00    +0.000 HD
ENDROOT
BRANCH   8  11
ATOM     11  C   UNL     1       1.751   6.808  19.795  0.00  0.00    +0.000 A 
ATOM     12  C   UNL     1       2.039   7.353  18.538  0.00  0.00    +0.000 A 
ATOM     13  C   UNL     1       1.850   8.714  18.300  0.00  0.00    +0.000 A 
ATOM     14  C   UNL     1       1.371   9.531  19.321  0.00  0.00    +0.000 A 
ATOM     15 CL   UNL     1       1.150  11.213  19.031  0.00  0.00    +0.000 Cl
ATOM     16  C   UNL     1       1.079   8.998  20.576  0.00  0.00    +0.000 A 
ATOM     17  C   UNL     1       1.271   7.634  20.816  0.00  0.00    +0.000 A 
ENDBRANCH   8  11
BRANCH   5  18
ATOM     18  N   UNL     1       7.121   5.858  19.312  0.00  0.00    +0.000 NA
ATOM     19  C   UNL     1       7.654   6.268  18.195  0.00  0.00    +0.000 C 
BRANCH  19  20
ATOM     20  C   UNL     1       7.753   5.504  16.872  0.00  0.00    +0.000 C 
BRANCH  20  21
ATOM     21  O   UNL     1       8.142   4.145  17.038  0.00  0.00    +0.000 OA
ATOM     22  H   UNL     1       8.958   4.217  17.581  0.00  0.00    +0.000 HD
ENDBRANCH  20  21
BRANCH  20  23
ATOM     23  C   UNL     1       6.423   5.576  16.084  0.00  0.00    +0.000 C 
BRANCH  23  24
ATOM     24  O   UNL     1       5.805   6.849  16.274  0.00  0.00    +0.000 OA
ATOM     25  H   UNL     1       4.973   6.731  16.771  0.00  0.00    +0.000 HD
ENDBRANCH  23  24
BRANCH  23  26
ATOM     26  C   UNL     1       6.607   5.178  14.595  0.00  0.00    +0.000 C 
BRANCH  26  27
ATOM     27  O   UNL     1       7.893   5.616  14.144  0.00  0.00    +0.000 OA
ATOM     28  H   UNL     1       7.958   5.443  13.183  0.00  0.00    +0.000 HD
ENDBRANCH  26  27
BRANCH  26  29
ATOM     29  C   UNL     1       6.425   3.671  14.310  0.00  0.00    +0.000 C 
BRANCH  29  30
ATOM     30  O   UNL     1       5.725   3.055  15.397  0.00  0.00    +0.000 OA
ATOM     31  H   UNL     1       6.349   2.487  15.883  0.00  0.00    +0.000 HD
ENDBRANCH  29  30
BRANCH  29  32
ATOM     32  C   UNL     1       5.652   3.438  12.996  0.00  0.00    +0.000 C 
BRANCH  32  33
ATOM     33  O   UNL     1       6.463   3.744  11.863  0.00  0.00    +0.000 OA
ATOM     34  H   UNL     1       7.386   3.811  12.165  0.00  0.00    +0.000 HD
ENDBRANCH  32  33
ENDBRANCH  29  32
ENDBRANCH  26  29
ENDBRANCH  23  26
ENDBRANCH  20  23
ENDBRANCH  19  20
ENDBRANCH   5  18
TORSDOF 12
ENDMDL
MODEL 4
REMARK VINA RESULT:      -7.4      1.114      1.945
REMARK  Name = 
REMARK  12 active torsions:
REMARK  status: ('A' for Active; 'I' for Inactive)
REMARK    1  A    between atoms: N_5  and  N_6
REMARK    2  A    between atoms: C_7  and  C_8
REMARK    3  A    between atoms: C_8  and  O_9
REMARK    4  A    between atoms: C_8  and  C_10
REMARK    5  A    between atoms: C_10  and  O_11
REMARK    6  A    between atoms: C_10  and  C_12
REMARK    7  A    between atoms: C_12  and  O_13
REMARK    8  A    between atoms: C_12  and  C_14
REMARK    9  A    between atoms: C_14  and  O_15
REMARK   10  A    between atoms: C_14  and  C_16
REMARK   11  A    between atoms: C_16  and  O_17
REMARK   12  A    between atoms: C_20  and  C_21
REMARK                            x       y       z     vdW  Elec       q    Type
REMARK                         _______ _______ _______ _____ _____    ______ ____
ROOT
ATOM      1  O   UNL     1       3.012   2.572  20.013  0.00  0.00    +0.000 OA
ATOM      2  C   UNL     1       3.789   3.466  19.745  0.00  0.00    +0.000 C 
ATOM      3  N   UNL     1       5.125   3.364  19.450  0.00  0.00    +0.000 N 
ATOM      4  C   UNL     1       5.696   4.591  19.358  0.00  0.00    +0.000 C 
ATOM      5  N   UNL     1       6.971   4.711  19.257  0.00  0.00    +0.000 NA
ATOM      6  N   UNL     1       4.707   5.524  19.453  0.00  0.00    +0.000 N 
ATOM      7  C   UNL     1       3.504   4.944  19.710  0.00  0.00    +0.000 C 
ATOM      8  C   UNL     1       2.279   5.447  19.888  0.00  0.00    +0.000 C 
ATOM      9  H   UNL     1       5.638   2.498  19.463  0.00  0.00    +0.000 HD
ATOM     10  H   UNL     1       4.883   6.515  19.461  0.00  0.00    +0.000 HD
ENDROOT
BRANCH   8  11
ATOM     11  C   UNL     1       1.999   6.867  19.686  0.00  0.00    +0.000 A 
ATOM     12  C   UNL     1       1.440   7.599  20.741  0.00  0.00    +0.000 A 
ATOM     13  C   UNL     1       1.115   8.944  20.571  0.00  0.00    +0.000 A 
ATOM     14  C   UNL     1       1.350   9.560  19.344  0.00  0.00    +0.000 A 
ATOM     15 CL   UNL     1       0.937  11.217  19.130  0.00  0.00    +0.000 Cl
ATOM     16  C   UNL     1       1.909   8.841  18.288  0.00  0.00    +0.000 A 
ATOM     17  C   UNL     1       2.233   7.491  18.457  0.00  0.00    +0.000 A 
ENDBRANCH   8  11
BRANCH   5  18
ATOM     18  N   UNL     1       7.399   6.032  19.357  0.00  0.00    +0.000 NA
ATOM     19  C   UNL     1       7.704   6.564  18.207  0.00  0.00    +0.000 C 
BRANCH  19  20
ATOM     20  C   UNL     1       7.572   5.929  16.819  0.00  0.00    +0.000 C 
BRANCH  20  21
ATOM     21  O   UNL     1       7.950   4.558  16.793  0.00  0.00    +0.000 OA
ATOM     22  H   UNL     1       7.220   4.121  17.285  0.00  0.00    +0.000 HD
ENDBRANCH  20  21
BRANCH  20  23
ATOM     23  C   UNL     1       6.135   6.087  16.268  0.00  0.00    +0.000 C 
BRANCH  23  24
ATOM     24  O   UNL     1       5.670   7.421  16.474  0.00  0.00    +0.000 OA
ATOM     25  H   UNL     1       6.088   7.786  17.277  0.00  0.00    +0.000 HD
ENDBRANCH  23  24
BRANCH  23  26
ATOM     26  C   UNL     1       6.018   5.596  14.800  0.00  0.00    +0.000 C 
BRANCH  26  27
ATOM     27  O   UNL     1       7.321   5.567  14.206  0.00  0.00    +0.000 OA
ATOM     28  H   UNL     1       7.854   4.889  14.667  0.00  0.00    +0.000 HD
ENDBRANCH  26  27
BRANCH  26  29
ATOM     29  C   UNL     1       5.326   4.226  14.637  0.00  0.00    +0.000 C 
BRANCH  29  30
ATOM     30  O   UNL     1       6.307   3.218  14.369  0.00  0.00    +0.000 OA
ATOM     31  H   UNL     1       6.024   2.714  13.585  0.00  0.00    +0.000 HD
ENDBRANCH  29  30
BRANCH  29  32
ATOM     32  C   UNL     1       4.525   3.848  15.901  0.00  0.00    +0.000 C 
BRANCH  32  33
ATOM     33  O   UNL     1       5.091   2.706  16.542  0.00  0.00    +0.000 OA
ATOM     34  H   UNL     1       5.917   2.984  16.975  0.00  0.00    +0.000 HD
ENDBRANCH  32  33
ENDBRANCH  29  32
ENDBRANCH  26  29
ENDBRANCH  23  26
ENDBRANCH  20  23
ENDBRANCH  19  20
ENDBRANCH   5  18
TORSDOF 12
ENDMDL
MODEL 5
REMARK VINA RESULT:      -7.3      3.402      5.483
REMARK  Name = 
REMARK  12 active torsions:
REMARK  status: ('A' for Active; 'I' for Inactive)
REMARK    1  A    between atoms: N_5  and  N_6
REMARK    2  A    between atoms: C_7  and  C_8
REMARK    3  A    between atoms: C_8  and  O_9
REMARK    4  A    between atoms: C_8  and  C_10
REMARK    5  A    between atoms: C_10  and  O_11
REMARK    6  A    between atoms: C_10  and  C_12
REMARK    7  A    between atoms: C_12  and  O_13
REMARK    8  A    between atoms: C_12  and  C_14
REMARK    9  A    between atoms: C_14  and  O_15
REMARK   10  A    between atoms: C_14  and  C_16
REMARK   11  A    between atoms: C_16  and  O_17
REMARK   12  A    between atoms: C_20  and  C_21
REMARK                            x       y       z     vdW  Elec       q    Type
REMARK                         _______ _______ _______ _____ _____    ______ ____
ROOT
ATOM      1  O   UNL     1       1.051   9.984  22.798  0.00  0.00    +0.000 OA
ATOM      2  C   UNL     1       1.114   9.327  21.779  0.00  0.00    +0.000 C 
ATOM      3  N   UNL     1       1.889   8.221  21.533  0.00  0.00    +0.000 N 
ATOM      4  C   UNL     1       1.806   7.853  20.230  0.00  0.00    +0.000 C 
ATOM      5  N   UNL     1       2.585   6.948  19.758  0.00  0.00    +0.000 NA
ATOM      6  N   UNL     1       0.859   8.629  19.631  0.00  0.00    +0.000 N 
ATOM      7  C   UNL     1       0.387   9.577  20.485  0.00  0.00    +0.000 C 
ATOM      8  C   UNL     1      -0.523  10.545  20.344  0.00  0.00    +0.000 C 
ATOM      9  H   UNL     1       2.551   7.843  22.190  0.00  0.00    +0.000 HD
ATOM     10  H   UNL     1       0.646   8.580  18.648  0.00  0.00    +0.000 HD
ENDROOT
BRANCH   8  11
ATOM     11  C   UNL     1      -1.333  10.663  19.133  0.00  0.00    +0.000 A 
ATOM     12  C   UNL     1      -1.040   9.832  18.045  0.00  0.00    +0.000 A 
ATOM     13  C   UNL     1      -1.760   9.947  16.856  0.00  0.00    +0.000 A 
ATOM     14  C   UNL     1      -2.775  10.895  16.755  0.00  0.00    +0.000 A 
ATOM     15 CL   UNL     1      -3.655  11.046  15.284  0.00  0.00    +0.000 Cl
ATOM     16  C   UNL     1      -3.077  11.726  17.834  0.00  0.00    +0.000 A 
ATOM     17  C   UNL     1      -2.354  11.612  19.025  0.00  0.00    +0.000 A 
ENDBRANCH   8  11
BRANCH   5  18
ATOM     18  N   UNL     1       2.492   6.821  18.374  0.00  0.00    +0.000 NA
ATOM     19  C   UNL     1       3.372   6.003  17.870  0.00  0.00    +0.000 C 
BRANCH  19  20
ATOM     20  C   UNL     1       4.399   5.153  18.625  0.00  0.00    +0.000 C 
BRANCH  20  21
ATOM     21  O   UNL     1       3.804   4.138  19.426  0.00  0.00    +0.000 OA
ATOM     22  H   UNL     1       4.449   3.400  19.358  0.00  0.00    +0.000 HD
ENDBRANCH  20  21
BRANCH  20  23
ATOM     23  C   UNL     1       5.424   4.521  17.654  0.00  0.00    +0.000 C 
BRANCH  23  24
ATOM     24  O   UNL     1       5.253   5.054  16.341  0.00  0.00    +0.000 OA
ATOM     25  H   UNL     1       5.485   6.001  16.346  0.00  0.00    +0.000 HD
ENDBRANCH  23  24
BRANCH  23  26
ATOM     26  C   UNL     1       6.875   4.621  18.194  0.00  0.00    +0.000 C 
BRANCH  26  27
ATOM     27  O   UNL     1       7.793   4.561  17.096  0.00  0.00    +0.000 OA
ATOM     28  H   UNL     1       8.609   4.115  17.401  0.00  0.00    +0.000 HD
ENDBRANCH  26  27
BRANCH  26  29
ATOM     29  C   UNL     1       7.152   5.872  19.055  0.00  0.00    +0.000 C 
BRANCH  29  30
ATOM     30  O   UNL     1       7.900   5.503  20.218  0.00  0.00    +0.000 OA
ATOM     31  H   UNL     1       7.354   5.679  21.005  0.00  0.00    +0.000 HD
ENDBRANCH  29  30
BRANCH  29  32
ATOM     32  C   UNL     1       7.925   6.943  18.258  0.00  0.00    +0.000 C 
BRANCH  32  33
ATOM     33  O   UNL     1       7.165   7.397  17.139  0.00  0.00    +0.000 OA
ATOM     34  H   UNL     1       6.224   7.235  17.331  0.00  0.00    +0.000 HD
ENDBRANCH  32  33
ENDBRANCH  29  32
ENDBRANCH  26  29
ENDBRANCH  23  26
ENDBRANCH  20  23
ENDBRANCH  19  20
ENDBRANCH   5  18
TORSDOF 12
ENDMDL
MODEL 6
REMARK VINA RESULT:      -7.2      5.039      8.369
REMARK  Name = 
REMARK  12 active torsions:
REMARK  status: ('A' for Active; 'I' for Inactive)
REMARK    1  A    between atoms: N_5  and  N_6
REMARK    2  A    between atoms: C_7  and  C_8
REMARK    3  A    between atoms: C_8  and  O_9
REMARK    4  A    between atoms: C_8  and  C_10
REMARK    5  A    between atoms: C_10  and  O_11
REMARK    6  A    between atoms: C_10  and  C_12
REMARK    7  A    between atoms: C_12  and  O_13
REMARK    8  A    between atoms: C_12  and  C_14
REMARK    9  A    between atoms: C_14  and  O_15
REMARK   10  A    between atoms: C_14  and  C_16
REMARK   11  A    between atoms: C_16  and  O_17
REMARK   12  A    between atoms: C_20  and  C_21
REMARK                            x       y       z     vdW  Elec       q    Type
REMARK                         _______ _______ _______ _____ _____    ______ ____
ROOT
ATOM      1  O   UNL     1       2.164   3.824  21.532  0.00  0.00    +0.000 OA
ATOM      2  C   UNL     1       2.335   4.835  20.882  0.00  0.00    +0.000 C 
ATOM      3  N   UNL     1       1.828   6.088  21.120  0.00  0.00    +0.000 N 
ATOM      4  C   UNL     1       2.111   6.928  20.093  0.00  0.00    +0.000 C 
ATOM      5  N   UNL     1       1.581   8.096  20.041  0.00  0.00    +0.000 NA
ATOM      6  N   UNL     1       2.935   6.272  19.227  0.00  0.00    +0.000 N 
ATOM      7  C   UNL     1       3.121   4.979  19.606  0.00  0.00    +0.000 C 
ATOM      8  C   UNL     1       3.825   3.975  19.076  0.00  0.00    +0.000 C 
ATOM      9  H   UNL     1       1.195   6.303  21.872  0.00  0.00    +0.000 HD
ATOM     10  H   UNL     1       3.250   6.669  18.357  0.00  0.00    +0.000 HD
ENDROOT
BRANCH   8  11
ATOM     11  C   UNL     1       4.709   4.183  17.931  0.00  0.00    +0.000 A 
ATOM     12  C   UNL     1       6.032   4.577  18.166  0.00  0.00    +0.000 A 
ATOM     13  C   UNL     1       6.892   4.831  17.098  0.00  0.00    +0.000 A 
ATOM     14  C   UNL     1       6.429   4.690  15.793  0.00  0.00    +0.000 A 
ATOM     15 CL   UNL     1       7.487   5.016  14.475  0.00  0.00    +0.000 Cl
ATOM     16  C   UNL     1       5.114   4.296  15.547  0.00  0.00    +0.000 A 
ATOM     17  C   UNL     1       4.251   4.044  16.618  0.00  0.00    +0.000 A 
ENDBRANCH   8  11
BRANCH   5  18
ATOM     18  N   UNL     1       1.833   8.751  18.838  0.00  0.00    +0.000 NA
ATOM     19  C   UNL     1       1.109   9.823  18.673  0.00  0.00    +0.000 C 
BRANCH  19  20
ATOM     20  C   UNL     1       0.112  10.438  19.659  0.00  0.00    +0.000 C 
BRANCH  20  21
ATOM     21  O   UNL     1       0.688  10.733  20.926  0.00  0.00    +0.000 OA
ATOM     22  H   UNL     1       0.997   9.853  21.235  0.00  0.00    +0.000 HD
ENDBRANCH  20  21
BRANCH  20  23
ATOM     23  C   UNL     1      -0.542  11.711  19.071  0.00  0.00    +0.000 C 
BRANCH  23  24
ATOM     24  O   UNL     1       0.178  12.149  17.918  0.00  0.00    +0.000 OA
ATOM     25  H   UNL     1       0.563  13.027  18.094  0.00  0.00    +0.000 HD
ENDBRANCH  23  24
BRANCH  23  26
ATOM     26  C   UNL     1      -2.065  11.527  18.833  0.00  0.00    +0.000 C 
BRANCH  26  27
ATOM     27  O   UNL     1      -2.772  12.619  19.433  0.00  0.00    +0.000 OA
ATOM     28  H   UNL     1      -2.496  12.688  20.369  0.00  0.00    +0.000 HD
ENDBRANCH  26  27
BRANCH  26  29
ATOM     29  C   UNL     1      -2.466  11.380  17.350  0.00  0.00    +0.000 C 
BRANCH  29  30
ATOM     30  O   UNL     1      -1.693  10.339  16.742  0.00  0.00    +0.000 OA
ATOM     31  H   UNL     1      -0.784  10.665  16.613  0.00  0.00    +0.000 HD
ENDBRANCH  29  30
BRANCH  29  32
ATOM     32  C   UNL     1      -3.969  11.065  17.203  0.00  0.00    +0.000 C 
BRANCH  32  33
ATOM     33  O   UNL     1      -4.322  10.884  15.833  0.00  0.00    +0.000 OA
ATOM     34  H   UNL     1      -3.973  11.641  15.331  0.00  0.00    +0.000 HD
ENDBRANCH  32  33
ENDBRANCH  29  32
ENDBRANCH  26  29
ENDBRANCH  23  26
ENDBRANCH  20  23
ENDBRANCH  19  20
ENDBRANCH   5  18
TORSDOF 12
ENDMDL
MODEL 7
REMARK VINA RESULT:      -7.2      5.287      8.521
REMARK  Name = 
REMARK  12 active torsions:
REMARK  status: ('A' for Active; 'I' for Inactive)
REMARK    1  A    between atoms: N_5  and  N_6
REMARK    2  A    between atoms: C_7  and  C_8
REMARK    3  A    between atoms: C_8  and  O_9
REMARK    4  A    between atoms: C_8  and  C_10
REMARK    5  A    between atoms: C_10  and  O_11
REMARK    6  A    between atoms: C_10  and  C_12
REMARK    7  A    between atoms: C_12  and  O_13
REMARK    8  A    between atoms: C_12  and  C_14
REMARK    9  A    between atoms: C_14  and  O_15
REMARK   10  A    between atoms: C_14  and  C_16
REMARK   11  A    between atoms: C_16  and  O_17
REMARK   12  A    between atoms: C_20  and  C_21
REMARK                            x       y       z     vdW  Elec       q    Type
REMARK                         _______ _______ _______ _____ _____    ______ ____
ROOT
ATOM      1  O   UNL     1       2.357   4.210  21.333  0.00  0.00    +0.000 OA
ATOM      2  C   UNL     1       2.477   5.214  20.660  0.00  0.00    +0.000 C 
ATOM      3  N   UNL     1       1.919   6.449  20.878  0.00  0.00    +0.000 N 
ATOM      4  C   UNL     1       2.153   7.277  19.830  0.00  0.00    +0.000 C 
ATOM      5  N   UNL     1       1.573   8.420  19.760  0.00  0.00    +0.000 NA
ATOM      6  N   UNL     1       2.994   6.639  18.967  0.00  0.00    +0.000 N 
ATOM      7  C   UNL     1       3.239   5.363  19.371  0.00  0.00    +0.000 C 
ATOM      8  C   UNL     1       3.979   4.379  18.853  0.00  0.00    +0.000 C 
ATOM      9  H   UNL     1       1.287   6.653  21.634  0.00  0.00    +0.000 HD
ATOM     10  H   UNL     1       3.280   7.030  18.085  0.00  0.00    +0.000 HD
ENDROOT
BRANCH   8  11
ATOM     11  C   UNL     1       4.839   4.600  17.692  0.00  0.00    +0.000 A 
ATOM     12  C   UNL     1       4.445   4.076  16.454  0.00  0.00    +0.000 A 
ATOM     13  C   UNL     1       5.262   4.226  15.334  0.00  0.00    +0.000 A 
ATOM     14  C   UNL     1       6.475   4.900  15.451  0.00  0.00    +0.000 A 
ATOM     15 CL   UNL     1       7.489   5.073  14.071  0.00  0.00    +0.000 Cl
ATOM     16  C   UNL     1       6.876   5.427  16.678  0.00  0.00    +0.000 A 
ATOM     17  C   UNL     1       6.058   5.276  17.802  0.00  0.00    +0.000 A 
ENDBRANCH   8  11
BRANCH   5  18
ATOM     18  N   UNL     1       1.781   9.060  18.541  0.00  0.00    +0.000 NA
ATOM     19  C   UNL     1       0.800   9.844  18.195  0.00  0.00    +0.000 C 
BRANCH  19  20
ATOM     20  C   UNL     1      -0.464  10.169  18.997  0.00  0.00    +0.000 C 
BRANCH  20  21
ATOM     21  O   UNL     1      -0.187  10.650  20.307  0.00  0.00    +0.000 OA
ATOM     22  H   UNL     1       0.720  10.311  20.476  0.00  0.00    +0.000 HD
ENDBRANCH  20  21
BRANCH  20  23
ATOM     23  C   UNL     1      -1.358  11.184  18.245  0.00  0.00    +0.000 C 
BRANCH  23  24
ATOM     24  O   UNL     1      -0.567  12.263  17.746  0.00  0.00    +0.000 OA
ATOM     25  H   UNL     1      -0.993  13.109  17.982  0.00  0.00    +0.000 HD
ENDBRANCH  23  24
BRANCH  23  26
ATOM     26  C   UNL     1      -2.240  10.496  17.169  0.00  0.00    +0.000 C 
BRANCH  26  27
ATOM     27  O   UNL     1      -3.052   9.495  17.792  0.00  0.00    +0.000 OA
ATOM     28  H   UNL     1      -3.066   8.706  17.215  0.00  0.00    +0.000 HD
ENDBRANCH  26  27
BRANCH  26  29
ATOM     29  C   UNL     1      -3.120  11.466  16.350  0.00  0.00    +0.000 C 
BRANCH  29  30
ATOM     30  O   UNL     1      -3.083  11.100  14.966  0.00  0.00    +0.000 OA
ATOM     31  H   UNL     1      -3.421  11.847  14.440  0.00  0.00    +0.000 HD
ENDBRANCH  29  30
BRANCH  29  32
ATOM     32  C   UNL     1      -4.579  11.459  16.851  0.00  0.00    +0.000 C 
BRANCH  32  33
ATOM     33  O   UNL     1      -4.726  12.276  18.011  0.00  0.00    +0.000 OA
ATOM     34  H   UNL     1      -4.841  11.688  18.778  0.00  0.00    +0.000 HD
ENDBRANCH  32  33
ENDBRANCH  29  32
ENDBRANCH  26  29
ENDBRANCH  23  26
ENDBRANCH  20  23
ENDBRANCH  19  20
ENDBRANCH   5  18
TORSDOF 12
ENDMDL
MODEL 8
REMARK VINA RESULT:      -7.2      0.755      1.589
REMARK  Name = 
REMARK  12 active torsions:
REMARK  status: ('A' for Active; 'I' for Inactive)
REMARK    1  A    between atoms: N_5  and  N_6
REMARK    2  A    between atoms: C_7  and  C_8
REMARK    3  A    between atoms: C_8  and  O_9
REMARK    4  A    between atoms: C_8  and  C_10
REMARK    5  A    between atoms: C_10  and  O_11
REMARK    6  A    between atoms: C_10  and  C_12
REMARK    7  A    between atoms: C_12  and  O_13
REMARK    8  A    between atoms: C_12  and  C_14
REMARK    9  A    between atoms: C_14  and  O_15
REMARK   10  A    between atoms: C_14  and  C_16
REMARK   11  A    between atoms: C_16  and  O_17
REMARK   12  A    between atoms: C_20  and  C_21
REMARK                            x       y       z     vdW  Elec       q    Type
REMARK                         _______ _______ _______ _____ _____    ______ ____
ROOT
ATOM      1  O   UNL     1       2.872   2.361  20.007  0.00  0.00    +0.000 OA
ATOM      2  C   UNL     1       3.634   3.269  19.742  0.00  0.00    +0.000 C 
ATOM      3  N   UNL     1       4.962   3.187  19.407  0.00  0.00    +0.000 N 
ATOM      4  C   UNL     1       5.520   4.421  19.334  0.00  0.00    +0.000 C 
ATOM      5  N   UNL     1       6.790   4.555  19.201  0.00  0.00    +0.000 NA
ATOM      6  N   UNL     1       4.526   5.342  19.481  0.00  0.00    +0.000 N 
ATOM      7  C   UNL     1       3.336   4.744  19.755  0.00  0.00    +0.000 C 
ATOM      8  C   UNL     1       2.112   5.231  19.981  0.00  0.00    +0.000 C 
ATOM      9  H   UNL     1       5.482   2.325  19.383  0.00  0.00    +0.000 HD
ATOM     10  H   UNL     1       4.694   6.334  19.511  0.00  0.00    +0.000 HD
ENDROOT
BRANCH   8  11
ATOM     11  C   UNL     1       1.814   6.653  19.825  0.00  0.00    +0.000 A 
ATOM     12  C   UNL     1       2.084   7.266  18.595  0.00  0.00    +0.000 A 
ATOM     13  C   UNL     1       1.858   8.631  18.423  0.00  0.00    +0.000 A 
ATOM     14  C   UNL     1       1.360   9.386  19.483  0.00  0.00    +0.000 A 
ATOM     15 CL   UNL     1       1.094  11.073  19.275  0.00  0.00    +0.000 Cl
ATOM     16  C   UNL     1       1.086   8.785  20.711  0.00  0.00    +0.000 A 
ATOM     17  C   UNL     1       1.315   7.417  20.885  0.00  0.00    +0.000 A 
ENDBRANCH   8  11
BRANCH   5  18
ATOM     18  N   UNL     1       7.210   5.877  19.325  0.00  0.00    +0.000 NA
ATOM     19  C   UNL     1       7.560   6.416  18.191  0.00  0.00    +0.000 C 
BRANCH  19  20
ATOM     20  C   UNL     1       7.485   5.789  16.796  0.00  0.00    +0.000 C 
BRANCH  20  21
ATOM     21  O   UNL     1       8.074   4.495  16.733  0.00  0.00    +0.000 OA
ATOM     22  H   UNL     1       7.338   3.936  16.398  0.00  0.00    +0.000 HD
ENDBRANCH  20  21
BRANCH  20  23
ATOM     23  C   UNL     1       6.025   5.725  16.289  0.00  0.00    +0.000 C 
BRANCH  23  24
ATOM     24  O   UNL     1       5.669   6.954  15.655  0.00  0.00    +0.000 OA
ATOM     25  H   UNL     1       6.463   7.513  15.569  0.00  0.00    +0.000 HD
ENDBRANCH  23  24
BRANCH  23  26
ATOM     26  C   UNL     1       5.766   4.466  15.419  0.00  0.00    +0.000 C 
BRANCH  26  27
ATOM     27  O   UNL     1       4.434   3.994  15.655  0.00  0.00    +0.000 OA
ATOM     28  H   UNL     1       3.866   4.291  14.916  0.00  0.00    +0.000 HD
ENDBRANCH  26  27
BRANCH  26  29
ATOM     29  C   UNL     1       5.999   4.675  13.907  0.00  0.00    +0.000 C 
BRANCH  29  30
ATOM     30  O   UNL     1       7.295   5.245  13.693  0.00  0.00    +0.000 OA
ATOM     31  H   UNL     1       7.288   5.716  12.841  0.00  0.00    +0.000 HD
ENDBRANCH  29  30
BRANCH  29  32
ATOM     32  C   UNL     1       5.880   3.348  13.131  0.00  0.00    +0.000 C 
BRANCH  32  33
ATOM     33  O   UNL     1       4.965   3.471  12.043  0.00  0.00    +0.000 OA
ATOM     34  H   UNL     1       4.646   2.580  11.818  0.00  0.00    +0.000 HD
ENDBRANCH  32  33
ENDBRANCH  29  32
ENDBRANCH  26  29
ENDBRANCH  23  26
ENDBRANCH  20  23
ENDBRANCH  19  20
ENDBRANCH   5  18
TORSDOF 12
ENDMDL
MODEL 9
REMARK VINA RESULT:      -7.2      5.000      8.649
REMARK  Name = 
REMARK  12 active torsions:
REMARK  status: ('A' for Active; 'I' for Inactive)
REMARK    1  A    between atoms: N_5  and  N_6
REMARK    2  A    between atoms: C_7  and  C_8
REMARK    3  A    between atoms: C_8  and  O_9
REMARK    4  A    between atoms: C_8  and  C_10
REMARK    5  A    between atoms: C_10  and  O_11
REMARK    6  A    between atoms: C_10  and  C_12
REMARK    7  A    between atoms: C_12  and  O_13
REMARK    8  A    between atoms: C_12  and  C_14
REMARK    9  A    between atoms: C_14  and  O_15
REMARK   10  A    between atoms: C_14  and  C_16
REMARK   11  A    between atoms: C_16  and  O_17
REMARK   12  A    between atoms: C_20  and  C_21
REMARK                            x       y       z     vdW  Elec       q    Type
REMARK                         _______ _______ _______ _____ _____    ______ ____
ROOT
ATOM      1  O   UNL     1       3.345   3.725  20.388  0.00  0.00    +0.000 OA
ATOM      2  C   UNL     1       3.351   4.747  19.732  0.00  0.00    +0.000 C 
ATOM      3  N   UNL     1       2.733   5.939  20.019  0.00  0.00    +0.000 N 
ATOM      4  C   UNL     1       2.837   6.800  18.976  0.00  0.00    +0.000 C 
ATOM      5  N   UNL     1       2.181   7.904  18.976  0.00  0.00    +0.000 NA
ATOM      6  N   UNL     1       3.650   6.234  18.040  0.00  0.00    +0.000 N 
ATOM      7  C   UNL     1       4.005   4.970  18.395  0.00  0.00    +0.000 C 
ATOM      8  C   UNL     1       4.766   4.046  17.801  0.00  0.00    +0.000 C 
ATOM      9  H   UNL     1       2.147   6.087  20.823  0.00  0.00    +0.000 HD
ATOM     10  H   UNL     1       3.845   6.660  17.149  0.00  0.00    +0.000 HD
ENDROOT
BRANCH   8  11
ATOM     11  C   UNL     1       5.523   4.344  16.587  0.00  0.00    +0.000 A 
ATOM     12  C   UNL     1       4.911   4.131  15.345  0.00  0.00    +0.000 A 
ATOM     13  C   UNL     1       5.617   4.359  14.164  0.00  0.00    +0.000 A 
ATOM     14  C   UNL     1       6.936   4.802  14.224  0.00  0.00    +0.000 A 
ATOM     15 CL   UNL     1       7.811   5.070  12.767  0.00  0.00    +0.000 Cl
ATOM     16  C   UNL     1       7.554   5.019  15.456  0.00  0.00    +0.000 A 
ATOM     17  C   UNL     1       6.847   4.788  16.641  0.00  0.00    +0.000 A 
ENDBRANCH   8  11
BRANCH   5  18
ATOM     18  N   UNL     1       2.258   8.579  17.760  0.00  0.00    +0.000 NA
ATOM     19  C   UNL     1       1.789   9.794  17.813  0.00  0.00    +0.000 C 
BRANCH  19  20
ATOM     20  C   UNL     1       1.256  10.537  19.042  0.00  0.00    +0.000 C 
BRANCH  20  21
ATOM     21  O   UNL     1       1.669  11.897  19.095  0.00  0.00    +0.000 OA
ATOM     22  H   UNL     1       1.879  12.099  18.156  0.00  0.00    +0.000 HD
ENDBRANCH  20  21
BRANCH  20  23
ATOM     23  C   UNL     1      -0.287  10.454  19.118  0.00  0.00    +0.000 C 
BRANCH  23  24
ATOM     24  O   UNL     1      -0.685   9.707  20.268  0.00  0.00    +0.000 OA
ATOM     25  H   UNL     1      -0.111   8.923  20.356  0.00  0.00    +0.000 HD
ENDBRANCH  23  24
BRANCH  23  26
ATOM     26  C   UNL     1      -0.951  11.853  19.013  0.00  0.00    +0.000 C 
BRANCH  26  27
ATOM     27  O   UNL     1      -0.782  12.357  17.683  0.00  0.00    +0.000 OA
ATOM     28  H   UNL     1      -1.668  12.485  17.287  0.00  0.00    +0.000 HD
ENDBRANCH  26  27
BRANCH  26  29
ATOM     29  C   UNL     1      -2.442  11.884  19.412  0.00  0.00    +0.000 C 
BRANCH  29  30
ATOM     30  O   UNL     1      -2.867  13.241  19.584  0.00  0.00    +0.000 OA
ATOM     31  H   UNL     1      -2.978  13.412  20.536  0.00  0.00    +0.000 HD
ENDBRANCH  29  30
BRANCH  29  32
ATOM     32  C   UNL     1      -3.322  11.194  18.350  0.00  0.00    +0.000 C 
BRANCH  32  33
ATOM     33  O   UNL     1      -3.553  12.057  17.237  0.00  0.00    +0.000 OA
ATOM     34  H   UNL     1      -3.585  11.508  16.434  0.00  0.00    +0.000 HD
ENDBRANCH  32  33
ENDBRANCH  29  32
ENDBRANCH  26  29
ENDBRANCH  23  26
ENDBRANCH  20  23
ENDBRANCH  19  20
ENDBRANCH   5  18
TORSDOF 12
ENDMDL
