MODEL 1
REMARK VINA RESULT:      -7.6      0.000      0.000
REMARK  Name = 
REMARK  4 active torsions:
REMARK  status: ('A' for Active; 'I' for Inactive)
REMARK    1  A    between atoms: N_1  and  C_2
REMARK    2  A    between atoms: C_2  and  C_3
REMARK    3  A    between atoms: C_9  and  C_10
REMARK    4  A    between atoms: C_13  and  C_14
REMARK                            x       y       z     vdW  Elec       q    Type
REMARK                         _______ _______ _______ _____ _____    ______ ____
ROOT
ATOM      1  C   UNL     1       0.215   9.845  21.287  0.00  0.00    +0.000 A 
ATOM      2  C   UNL     1       0.419  10.563  20.169  0.00  0.00    +0.000 A 
ATOM      3  C   UNL     1       1.186   9.957  19.052  0.00  0.00    +0.000 A 
ATOM      4  O   UNL     1       1.354  10.578  18.008  0.00  0.00    +0.000 OA
ATOM      5  C   UNL     1       1.750   8.601  19.257  0.00  0.00    +0.000 A 
ATOM      6  C   UNL     1       2.526   7.997  18.260  0.00  0.00    +0.000 A 
ATOM      7  C   UNL     1       3.053   6.706  18.437  0.00  0.00    +0.000 A 
ATOM      8  C   UNL     1       2.765   6.054  19.652  0.00  0.00    +0.000 A 
ATOM      9  C   UNL     1       2.000   6.666  20.656  0.00  0.00    +0.000 A 
ATOM     10  C   UNL     1       1.499   7.952  20.472  0.00  0.00    +0.000 A 
ATOM     11  N   UNL     1       0.683   8.553  21.430  0.00  0.00    +0.000 N 
ATOM     12  H   UNL     1       0.657   8.197  22.385  0.00  0.00    +0.000 HD
ENDROOT
BRANCH   7  13
ATOM     13  C   UNL     1       3.887   6.068  17.395  0.00  0.00    +0.000 A 
ATOM     14  C   UNL     1       3.912   4.681  17.196  0.00  0.00    +0.000 A 
ATOM     15  C   UNL     1       4.674   4.116  16.169  0.00  0.00    +0.000 A 
ATOM     16  C   UNL     1       5.427   4.945  15.341  0.00  0.00    +0.000 A 
ATOM     17  N   UNL     1       5.448   6.294  15.525  0.00  0.00    +0.000 NA
ATOM     18  C   UNL     1       4.688   6.808  16.524  0.00  0.00    +0.000 A 
BRANCH  16  19
ATOM     19  C   UNL     1       6.232   4.350  14.193  0.00  0.00    +0.000 C 
ATOM     20  F   UNL     1       7.012   3.292  14.574  0.00  0.00    +0.000 F 
ATOM     21  F   UNL     1       5.449   3.874  13.183  0.00  0.00    +0.000 F 
ATOM     22  F   UNL     1       7.091   5.241  13.620  0.00  0.00    +0.000 F 
ENDBRANCH  16  19
ENDBRANCH   7  13
BRANCH   1  23
ATOM     23  C   UNL     1      -0.509  10.432  22.481  0.00  0.00    +0.000 C 
BRANCH  23  24
ATOM     24  N   UNL     1      -0.731   9.402  23.505  0.00  0.00    +0.000 NA
ATOM     25  H   UNL     1       0.131   8.868  23.615  0.00  0.00    +0.000 HD
ATOM     26  H   UNL     1      -1.419   8.740  23.146  0.00  0.00    +0.000 HD
ENDBRANCH  23  24
ENDBRANCH   1  23
TORSDOF 4
ENDMDL
MODEL 2
REMARK VINA RESULT:      -7.5      5.989      9.060
REMARK  Name = 
REMARK  4 active torsions:
REMARK  status: ('A' for Active; 'I' for Inactive)
REMARK    1  A    between atoms: N_1  and  C_2
REMARK    2  A    between atoms: C_2  and  C_3
REMARK    3  A    between atoms: C_9  and  C_10
REMARK    4  A    between atoms: C_13  and  C_14
REMARK                            x       y       z     vdW  Elec       q    Type
REMARK                         _______ _______ _______ _____ _____    ______ ____
ROOT
ATOM      1  C   UNL     1       4.171   4.895  18.080  0.00  0.00    +0.000 A 
ATOM      2  C   UNL     1       3.775   4.415  19.272  0.00  0.00    +0.000 A 
ATOM      3  C   UNL     1       2.852   5.224  20.105  0.00  0.00    +0.000 A 
ATOM      4  O   UNL     1       2.448   4.792  21.180  0.00  0.00    +0.000 OA
ATOM      5  C   UNL     1       2.463   6.564  19.603  0.00  0.00    +0.000 A 
ATOM      6  C   UNL     1       1.635   7.396  20.368  0.00  0.00    +0.000 A 
ATOM      7  C   UNL     1       1.247   8.662  19.895  0.00  0.00    +0.000 A 
ATOM      8  C   UNL     1       1.725   9.049  18.627  0.00  0.00    +0.000 A 
ATOM      9  C   UNL     1       2.566   8.222  17.870  0.00  0.00    +0.000 A 
ATOM     10  C   UNL     1       2.955   6.977  18.359  0.00  0.00    +0.000 A 
ATOM     11  N   UNL     1       3.737   6.112  17.594  0.00  0.00    +0.000 N 
ATOM     12  H   UNL     1       4.265   6.462  16.796  0.00  0.00    +0.000 HD
ENDROOT
BRANCH   7  13
ATOM     13  C   UNL     1       0.387   9.553  20.703  0.00  0.00    +0.000 A 
ATOM     14  C   UNL     1       0.064   9.278  22.039  0.00  0.00    +0.000 A 
ATOM     15  C   UNL     1      -0.711  10.168  22.789  0.00  0.00    +0.000 A 
ATOM     16  C   UNL     1      -1.177  11.338  22.193  0.00  0.00    +0.000 A 
ATOM     17  N   UNL     1      -0.905  11.622  20.889  0.00  0.00    +0.000 NA
ATOM     18  C   UNL     1      -0.141  10.742  20.196  0.00  0.00    +0.000 A 
BRANCH  16  19
ATOM     19  C   UNL     1      -1.989  12.337  23.006  0.00  0.00    +0.000 C 
ATOM     20  F   UNL     1      -2.832  11.742  23.904  0.00  0.00    +0.000 F 
ATOM     21  F   UNL     1      -1.213  13.180  23.746  0.00  0.00    +0.000 F 
ATOM     22  F   UNL     1      -2.787  13.133  22.237  0.00  0.00    +0.000 F 
ENDBRANCH  16  19
ENDBRANCH   7  13
BRANCH   1  23
ATOM     23  C   UNL     1       5.158   4.140  17.214  0.00  0.00    +0.000 C 
BRANCH  23  24
ATOM     24  N   UNL     1       6.460   4.036  17.887  0.00  0.00    +0.000 NA
ATOM     25  H   UNL     1       6.326   4.244  18.876  0.00  0.00    +0.000 HD
ATOM     26  H   UNL     1       7.062   4.779  17.530  0.00  0.00    +0.000 HD
ENDBRANCH  23  24
ENDBRANCH   1  23
TORSDOF 4
ENDMDL
MODEL 3
REMARK VINA RESULT:      -7.5      2.668      3.945
REMARK  Name = 
REMARK  4 active torsions:
REMARK  status: ('A' for Active; 'I' for Inactive)
REMARK    1  A    between atoms: N_1  and  C_2
REMARK    2  A    between atoms: C_2  and  C_3
REMARK    3  A    between atoms: C_9  and  C_10
REMARK    4  A    between atoms: C_13  and  C_14
REMARK                            x       y       z     vdW  Elec       q    Type
REMARK                         _______ _______ _______ _____ _____    ______ ____
ROOT
ATOM      1  C   UNL     1      -1.842  12.021  22.089  0.00  0.00    +0.000 A 
ATOM      2  C   UNL     1      -1.260  11.298  23.061  0.00  0.00    +0.000 A 
ATOM      3  C   UNL     1      -0.241  10.284  22.695  0.00  0.00    +0.000 A 
ATOM      4  O   UNL     1       0.331   9.637  23.566  0.00  0.00    +0.000 OA
ATOM      5  C   UNL     1       0.039  10.074  21.254  0.00  0.00    +0.000 A 
ATOM      6  C   UNL     1       0.954   9.096  20.843  0.00  0.00    +0.000 A 
ATOM      7  C   UNL     1       1.237   8.899  19.480  0.00  0.00    +0.000 A 
ATOM      8  C   UNL     1       0.565   9.725  18.557  0.00  0.00    +0.000 A 
ATOM      9  C   UNL     1      -0.362  10.693  18.969  0.00  0.00    +0.000 A 
ATOM     10  C   UNL     1      -0.644  10.865  20.322  0.00  0.00    +0.000 A 
ATOM     11  N   UNL     1      -1.514  11.865  20.757  0.00  0.00    +0.000 N 
ATOM     12  H   UNL     1      -2.164  12.304  20.106  0.00  0.00    +0.000 HD
ENDROOT
BRANCH   7  13
ATOM     13  C   UNL     1       2.190   7.858  19.037  0.00  0.00    +0.000 A 
ATOM     14  C   UNL     1       2.944   7.979  17.862  0.00  0.00    +0.000 A 
ATOM     15  C   UNL     1       3.872   6.998  17.500  0.00  0.00    +0.000 A 
ATOM     16  C   UNL     1       4.038   5.880  18.314  0.00  0.00    +0.000 A 
ATOM     17  N   UNL     1       3.301   5.718  19.448  0.00  0.00    +0.000 NA
ATOM     18  C   UNL     1       2.419   6.695  19.775  0.00  0.00    +0.000 A 
BRANCH  16  19
ATOM     19  C   UNL     1       5.072   4.821  17.956  0.00  0.00    +0.000 C 
ATOM     20  F   UNL     1       4.602   3.543  18.086  0.00  0.00    +0.000 F 
ATOM     21  F   UNL     1       5.506   4.914  16.665  0.00  0.00    +0.000 F 
ATOM     22  F   UNL     1       6.190   4.874  18.736  0.00  0.00    +0.000 F 
ENDBRANCH  16  19
ENDBRANCH   7  13
BRANCH   1  23
ATOM     23  C   UNL     1      -2.931  13.027  22.398  0.00  0.00    +0.000 C 
BRANCH  23  24
ATOM     24  N   UNL     1      -4.021  12.391  23.152  0.00  0.00    +0.000 NA
ATOM     25  H   UNL     1      -4.137  11.439  22.806  0.00  0.00    +0.000 HD
ATOM     26  H   UNL     1      -4.889  12.875  22.923  0.00  0.00    +0.000 HD
ENDBRANCH  23  24
ENDBRANCH   1  23
TORSDOF 4
ENDMDL
MODEL 4
REMARK VINA RESULT:      -7.4      1.043      1.418
REMARK  Name = 
REMARK  4 active torsions:
REMARK  status: ('A' for Active; 'I' for Inactive)
REMARK    1  A    between atoms: N_1  and  C_2
REMARK    2  A    between atoms: C_2  and  C_3
REMARK    3  A    between atoms: C_9  and  C_10
REMARK    4  A    between atoms: C_13  and  C_14
REMARK                            x       y       z     vdW  Elec       q    Type
REMARK                         _______ _______ _______ _____ _____    ______ ____
ROOT
ATOM      1  C   UNL     1      -0.234   9.980  21.708  0.00  0.00    +0.000 A 
ATOM      2  C   UNL     1       0.092  10.762  20.665  0.00  0.00    +0.000 A 
ATOM      3  C   UNL     1       0.924  10.199  19.573  0.00  0.00    +0.000 A 
ATOM      4  O   UNL     1       1.204  10.881  18.593  0.00  0.00    +0.000 OA
ATOM      5  C   UNL     1       1.413   8.807  19.724  0.00  0.00    +0.000 A 
ATOM      6  C   UNL     1       2.244   8.237  18.751  0.00  0.00    +0.000 A 
ATOM      7  C   UNL     1       2.701   6.914  18.877  0.00  0.00    +0.000 A 
ATOM      8  C   UNL     1       2.286   6.195  20.016  0.00  0.00    +0.000 A 
ATOM      9  C   UNL     1       1.466   6.772  20.996  0.00  0.00    +0.000 A 
ATOM     10  C   UNL     1       1.035   8.090  20.865  0.00  0.00    +0.000 A 
ATOM     11  N   UNL     1       0.167   8.662  21.796  0.00  0.00    +0.000 N 
ATOM     12  H   UNL     1       0.047   8.243  22.717  0.00  0.00    +0.000 HD
ENDROOT
BRANCH   7  13
ATOM     13  C   UNL     1       3.592   6.310  17.863  0.00  0.00    +0.000 A 
ATOM     14  C   UNL     1       4.375   7.081  16.994  0.00  0.00    +0.000 A 
ATOM     15  C   UNL     1       5.244   6.477  16.081  0.00  0.00    +0.000 A 
ATOM     16  C   UNL     1       5.323   5.087  16.029  0.00  0.00    +0.000 A 
ATOM     17  N   UNL     1       4.555   4.307  16.840  0.00  0.00    +0.000 NA
ATOM     18  C   UNL     1       3.731   4.928  17.720  0.00  0.00    +0.000 A 
BRANCH  16  19
ATOM     19  C   UNL     1       6.292   4.413  15.068  0.00  0.00    +0.000 C 
ATOM     20  F   UNL     1       5.931   3.132  14.749  0.00  0.00    +0.000 F 
ATOM     21  F   UNL     1       6.400   5.063  13.874  0.00  0.00    +0.000 F 
ATOM     22  F   UNL     1       7.560   4.316  15.563  0.00  0.00    +0.000 F 
ENDBRANCH  16  19
ENDBRANCH   7  13
BRANCH   1  23
ATOM     23  C   UNL     1      -1.030  10.518  22.879  0.00  0.00    +0.000 C 
BRANCH  23  24
ATOM     24  N   UNL     1      -0.737  11.942  23.090  0.00  0.00    +0.000 NA
ATOM     25  H   UNL     1       0.178  12.019  23.532  0.00  0.00    +0.000 HD
ATOM     26  H   UNL     1      -1.403  12.305  23.773  0.00  0.00    +0.000 HD
ENDBRANCH  23  24
ENDBRANCH   1  23
TORSDOF 4
ENDMDL
MODEL 5
REMARK VINA RESULT:      -7.4      6.014      9.133
REMARK  Name = 
REMARK  4 active torsions:
REMARK  status: ('A' for Active; 'I' for Inactive)
REMARK    1  A    between atoms: N_1  and  C_2
REMARK    2  A    between atoms: C_2  and  C_3
REMARK    3  A    between atoms: C_9  and  C_10
REMARK    4  A    between atoms: C_13  and  C_14
REMARK                            x       y       z     vdW  Elec       q    Type
REMARK                         _______ _______ _______ _____ _____    ______ ____
ROOT
ATOM      1  C   UNL     1       4.029   5.032  18.163  0.00  0.00    +0.000 A 
ATOM      2  C   UNL     1       3.631   4.606  19.373  0.00  0.00    +0.000 A 
ATOM      3  C   UNL     1       2.741   5.471  20.187  0.00  0.00    +0.000 A 
ATOM      4  O   UNL     1       2.334   5.088  21.279  0.00  0.00    +0.000 OA
ATOM      5  C   UNL     1       2.387   6.804  19.642  0.00  0.00    +0.000 A 
ATOM      6  C   UNL     1       1.592   7.686  20.385  0.00  0.00    +0.000 A 
ATOM      7  C   UNL     1       1.238   8.946  19.872  0.00  0.00    +0.000 A 
ATOM      8  C   UNL     1       1.715   9.275  18.588  0.00  0.00    +0.000 A 
ATOM      9  C   UNL     1       2.523   8.397  17.852  0.00  0.00    +0.000 A 
ATOM     10  C   UNL     1       2.878   7.159  18.381  0.00  0.00    +0.000 A 
ATOM     11  N   UNL     1       3.627   6.245  17.639  0.00  0.00    +0.000 N 
ATOM     12  H   UNL     1       4.157   6.551  16.824  0.00  0.00    +0.000 HD
ENDROOT
BRANCH   7  13
ATOM     13  C   UNL     1       0.413   9.890  20.657  0.00  0.00    +0.000 A 
ATOM     14  C   UNL     1      -0.443  10.822  20.056  0.00  0.00    +0.000 A 
ATOM     15  C   UNL     1      -1.246  11.665  20.829  0.00  0.00    +0.000 A 
ATOM     16  C   UNL     1      -1.184  11.583  22.218  0.00  0.00    +0.000 A 
ATOM     17  N   UNL     1      -0.342  10.708  22.836  0.00  0.00    +0.000 NA
ATOM     18  C   UNL     1       0.414   9.898  22.054  0.00  0.00    +0.000 A 
BRANCH  16  19
ATOM     19  C   UNL     1      -2.080  12.466  23.076  0.00  0.00    +0.000 C 
ATOM     20  F   UNL     1      -2.941  13.235  22.342  0.00  0.00    +0.000 F 
ATOM     21  F   UNL     1      -2.873  11.754  23.928  0.00  0.00    +0.000 F 
ATOM     22  F   UNL     1      -1.384  13.346  23.852  0.00  0.00    +0.000 F 
ENDBRANCH  16  19
ENDBRANCH   7  13
BRANCH   1  23
ATOM     23  C   UNL     1       4.984   4.219  17.314  0.00  0.00    +0.000 C 
BRANCH  23  24
ATOM     24  N   UNL     1       6.188   3.872  18.083  0.00  0.00    +0.000 NA
ATOM     25  H   UNL     1       6.918   3.597  17.427  0.00  0.00    +0.000 HD
ATOM     26  H   UNL     1       5.983   3.036  18.631  0.00  0.00    +0.000 HD
ENDBRANCH  23  24
ENDBRANCH   1  23
TORSDOF 4
ENDMDL
MODEL 6
REMARK VINA RESULT:      -7.3      3.684      4.708
REMARK  Name = 
REMARK  4 active torsions:
REMARK  status: ('A' for Active; 'I' for Inactive)
REMARK    1  A    between atoms: N_1  and  C_2
REMARK    2  A    between atoms: C_2  and  C_3
REMARK    3  A    between atoms: C_9  and  C_10
REMARK    4  A    between atoms: C_13  and  C_14
REMARK                            x       y       z     vdW  Elec       q    Type
REMARK                         _______ _______ _______ _____ _____    ______ ____
ROOT
ATOM      1  C   UNL     1       0.038  12.799  19.547  0.00  0.00    +0.000 A 
ATOM      2  C   UNL     1      -0.125  12.364  20.808  0.00  0.00    +0.000 A 
ATOM      3  C   UNL     1       0.351  11.007  21.171  0.00  0.00    +0.000 A 
ATOM      4  O   UNL     1       0.247  10.601  22.324  0.00  0.00    +0.000 OA
ATOM      5  C   UNL     1       0.929  10.166  20.095  0.00  0.00    +0.000 A 
ATOM      6  C   UNL     1       1.349   8.857  20.364  0.00  0.00    +0.000 A 
ATOM      7  C   UNL     1       1.912   8.057  19.355  0.00  0.00    +0.000 A 
ATOM      8  C   UNL     1       2.034   8.629  18.073  0.00  0.00    +0.000 A 
ATOM      9  C   UNL     1       1.599   9.934  17.801  0.00  0.00    +0.000 A 
ATOM     10  C   UNL     1       1.028  10.708  18.808  0.00  0.00    +0.000 A 
ATOM     11  N   UNL     1       0.648  12.030  18.575  0.00  0.00    +0.000 N 
ATOM     12  H   UNL     1       0.521  12.372  17.623  0.00  0.00    +0.000 HD
ENDROOT
BRANCH   7  13
ATOM     13  C   UNL     1       2.343   6.669  19.627  0.00  0.00    +0.000 A 
ATOM     14  C   UNL     1       1.738   5.871  20.608  0.00  0.00    +0.000 A 
ATOM     15  C   UNL     1       2.137   4.546  20.804  0.00  0.00    +0.000 A 
ATOM     16  C   UNL     1       3.160   4.017  20.020  0.00  0.00    +0.000 A 
ATOM     17  N   UNL     1       3.789   4.773  19.077  0.00  0.00    +0.000 NA
ATOM     18  C   UNL     1       3.368   6.051  18.907  0.00  0.00    +0.000 A 
BRANCH  16  19
ATOM     19  C   UNL     1       3.581   2.564  20.194  0.00  0.00    +0.000 C 
ATOM     20  F   UNL     1       2.843   1.695  19.438  0.00  0.00    +0.000 F 
ATOM     21  F   UNL     1       4.879   2.338  19.836  0.00  0.00    +0.000 F 
ATOM     22  F   UNL     1       3.459   2.118  21.477  0.00  0.00    +0.000 F 
ENDBRANCH  16  19
ENDBRANCH   7  13
BRANCH   1  23
ATOM     23  C   UNL     1      -0.481  14.151  19.104  0.00  0.00    +0.000 C 
BRANCH  23  24
ATOM     24  N   UNL     1      -1.689  14.511  19.859  0.00  0.00    +0.000 NA
ATOM     25  H   UNL     1      -2.193  13.653  20.085  0.00  0.00    +0.000 HD
ATOM     26  H   UNL     1      -2.306  15.035  19.238  0.00  0.00    +0.000 HD
ENDBRANCH  23  24
ENDBRANCH   1  23
TORSDOF 4
ENDMDL
MODEL 7
REMARK VINA RESULT:      -7.3      3.206      4.253
REMARK  Name = 
REMARK  4 active torsions:
REMARK  status: ('A' for Active; 'I' for Inactive)
REMARK    1  A    between atoms: N_1  and  C_2
REMARK    2  A    between atoms: C_2  and  C_3
REMARK    3  A    between atoms: C_9  and  C_10
REMARK    4  A    between atoms: C_13  and  C_14
REMARK                            x       y       z     vdW  Elec       q    Type
REMARK                         _______ _______ _______ _____ _____    ______ ____
ROOT
ATOM      1  C   UNL     1       0.080  12.443  20.325  0.00  0.00    +0.000 A 
ATOM      2  C   UNL     1      -0.125  11.751  21.458  0.00  0.00    +0.000 A 
ATOM      3  C   UNL     1       0.339  10.344  21.538  0.00  0.00    +0.000 A 
ATOM      4  O   UNL     1       0.197   9.702  22.574  0.00  0.00    +0.000 OA
ATOM      5  C   UNL     1       0.954   9.748  20.326  0.00  0.00    +0.000 A 
ATOM      6  C   UNL     1       1.365   8.410  20.324  0.00  0.00    +0.000 A 
ATOM      7  C   UNL     1       1.963   7.840  19.186  0.00  0.00    +0.000 A 
ATOM      8  C   UNL     1       2.126   8.672  18.060  0.00  0.00    +0.000 A 
ATOM      9  C   UNL     1       1.700  10.007  18.060  0.00  0.00    +0.000 A 
ATOM     10  C   UNL     1       1.095  10.552  19.189  0.00  0.00    +0.000 A 
ATOM     11  N   UNL     1       0.722  11.896  19.231  0.00  0.00    +0.000 N 
ATOM     12  H   UNL     1       0.627  12.434  18.371  0.00  0.00    +0.000 HD
ENDROOT
BRANCH   7  13
ATOM     13  C   UNL     1       2.385   6.423  19.169  0.00  0.00    +0.000 A 
ATOM     14  C   UNL     1       2.156   5.556  20.246  0.00  0.00    +0.000 A 
ATOM     15  C   UNL     1       2.524   4.209  20.176  0.00  0.00    +0.000 A 
ATOM     16  C   UNL     1       3.138   3.728  19.023  0.00  0.00    +0.000 A 
ATOM     17  N   UNL     1       3.402   4.549  17.968  0.00  0.00    +0.000 NA
ATOM     18  C   UNL     1       3.021   5.847  18.067  0.00  0.00    +0.000 A 
BRANCH  16  19
ATOM     19  C   UNL     1       3.510   2.255  18.914  0.00  0.00    +0.000 C 
ATOM     20  F   UNL     1       3.891   1.887  17.653  0.00  0.00    +0.000 F 
ATOM     21  F   UNL     1       4.555   1.908  19.720  0.00  0.00    +0.000 F 
ATOM     22  F   UNL     1       2.486   1.416  19.240  0.00  0.00    +0.000 F 
ENDBRANCH  16  19
ENDBRANCH   7  13
BRANCH   1  23
ATOM     23  C   UNL     1      -0.425  13.862  20.164  0.00  0.00    +0.000 C 
BRANCH  23  24
ATOM     24  N   UNL     1      -0.843  14.106  18.777  0.00  0.00    +0.000 NA
ATOM     25  H   UNL     1      -0.814  15.111  18.605  0.00  0.00    +0.000 HD
ATOM     26  H   UNL     1      -1.825  13.841  18.690  0.00  0.00    +0.000 HD
ENDBRANCH  23  24
ENDBRANCH   1  23
TORSDOF 4
ENDMDL
MODEL 8
REMARK VINA RESULT:      -7.2      5.597      8.786
REMARK  Name = 
REMARK  4 active torsions:
REMARK  status: ('A' for Active; 'I' for Inactive)
REMARK    1  A    between atoms: N_1  and  C_2
REMARK    2  A    between atoms: C_2  and  C_3
REMARK    3  A    between atoms: C_9  and  C_10
REMARK    4  A    between atoms: C_13  and  C_14
REMARK                            x       y       z     vdW  Elec       q    Type
REMARK                         _______ _______ _______ _____ _____    ______ ____
ROOT
ATOM      1  C   UNL     1       4.831   4.446  17.214  0.00  0.00    +0.000 A 
ATOM      2  C   UNL     1       4.364   3.848  18.323  0.00  0.00    +0.000 A 
ATOM      3  C   UNL     1       3.426   4.590  19.203  0.00  0.00    +0.000 A 
ATOM      4  O   UNL     1       2.957   4.054  20.201  0.00  0.00    +0.000 OA
ATOM      5  C   UNL     1       3.101   5.992  18.840  0.00  0.00    +0.000 A 
ATOM      6  C   UNL     1       2.263   6.760  19.658  0.00  0.00    +0.000 A 
ATOM      7  C   UNL     1       1.936   8.084  19.316  0.00  0.00    +0.000 A 
ATOM      8  C   UNL     1       2.487   8.595  18.124  0.00  0.00    +0.000 A 
ATOM      9  C   UNL     1       3.338   7.830  17.315  0.00  0.00    +0.000 A 
ATOM     10  C   UNL     1       3.665   6.525  17.675  0.00  0.00    +0.000 A 
ATOM     11  N   UNL     1       4.458   5.725  16.852  0.00  0.00    +0.000 N 
ATOM     12  H   UNL     1       5.034   6.144  16.123  0.00  0.00    +0.000 HD
ENDROOT
BRANCH   7  13
ATOM     13  C   UNL     1       1.065   8.907  20.182  0.00  0.00    +0.000 A 
ATOM     14  C   UNL     1       1.015   8.743  21.573  0.00  0.00    +0.000 A 
ATOM     15  C   UNL     1       0.217   9.573  22.366  0.00  0.00    +0.000 A 
ATOM     16  C   UNL     1      -0.547  10.569  21.762  0.00  0.00    +0.000 A 
ATOM     17  N   UNL     1      -0.543  10.737  20.410  0.00  0.00    +0.000 NA
ATOM     18  C   UNL     1       0.251   9.922  19.673  0.00  0.00    +0.000 A 
BRANCH  16  19
ATOM     19  C   UNL     1      -1.391  11.507  22.614  0.00  0.00    +0.000 C 
ATOM     20  F   UNL     1      -2.033  10.870  23.641  0.00  0.00    +0.000 F 
ATOM     21  F   UNL     1      -0.659  12.495  23.206  0.00  0.00    +0.000 F 
ATOM     22  F   UNL     1      -2.375  12.135  21.908  0.00  0.00    +0.000 F 
ENDBRANCH  16  19
ENDBRANCH   7  13
BRANCH   1  23
ATOM     23  C   UNL     1       5.835   3.760  16.311  0.00  0.00    +0.000 C 
BRANCH  23  24
ATOM     24  N   UNL     1       6.955   4.662  16.009  0.00  0.00    +0.000 NA
ATOM     25  H   UNL     1       7.665   4.133  15.504  0.00  0.00    +0.000 HD
ATOM     26  H   UNL     1       7.391   4.933  16.891  0.00  0.00    +0.000 HD
ENDBRANCH  23  24
ENDBRANCH   1  23
TORSDOF 4
ENDMDL
MODEL 9
REMARK VINA RESULT:      -7.1      1.083      1.633
REMARK  Name = 
REMARK  4 active torsions:
REMARK  status: ('A' for Active; 'I' for Inactive)
REMARK    1  A    between atoms: N_1  and  C_2
REMARK    2  A    between atoms: C_2  and  C_3
REMARK    3  A    between atoms: C_9  and  C_10
REMARK    4  A    between atoms: C_13  and  C_14
REMARK                            x       y       z     vdW  Elec       q    Type
REMARK                         _______ _______ _______ _____ _____    ______ ____
ROOT
ATOM      1  C   UNL     1      -0.316  10.646  21.051  0.00  0.00    +0.000 A 
ATOM      2  C   UNL     1       0.042  11.291  19.928  0.00  0.00    +0.000 A 
ATOM      3  C   UNL     1       0.905  10.596  18.940  0.00  0.00    +0.000 A 
ATOM      4  O   UNL     1       1.216  11.150  17.891  0.00  0.00    +0.000 OA
ATOM      5  C   UNL     1       1.384   9.234  19.279  0.00  0.00    +0.000 A 
ATOM      6  C   UNL     1       2.242   8.547  18.411  0.00  0.00    +0.000 A 
ATOM      7  C   UNL     1       2.690   7.249  18.715  0.00  0.00    +0.000 A 
ATOM      8  C   UNL     1       2.239   6.679  19.921  0.00  0.00    +0.000 A 
ATOM      9  C   UNL     1       1.393   7.374  20.797  0.00  0.00    +0.000 A 
ATOM     10  C   UNL     1       0.971   8.665  20.489  0.00  0.00    +0.000 A 
ATOM     11  N   UNL     1       0.077   9.348  21.315  0.00  0.00    +0.000 N 
ATOM     12  H   UNL     1      -0.072   9.048  22.277  0.00  0.00    +0.000 HD
ENDROOT
BRANCH   7  13
ATOM     13  C   UNL     1       3.609   6.524  17.811  0.00  0.00    +0.000 A 
ATOM     14  C   UNL     1       4.396   7.178  16.853  0.00  0.00    +0.000 A 
ATOM     15  C   UNL     1       5.291   6.465  16.050  0.00  0.00    +0.000 A 
ATOM     16  C   UNL     1       5.391   5.084  16.197  0.00  0.00    +0.000 A 
ATOM     17  N   UNL     1       4.621   4.413  17.099  0.00  0.00    +0.000 NA
ATOM     18  C   UNL     1       3.772   5.138  17.869  0.00  0.00    +0.000 A 
BRANCH  16  19
ATOM     19  C   UNL     1       6.389   4.297  15.358  0.00  0.00    +0.000 C 
ATOM     20  F   UNL     1       6.622   4.858  14.132  0.00  0.00    +0.000 F 
ATOM     21  F   UNL     1       7.616   4.193  15.945  0.00  0.00    +0.000 F 
ATOM     22  F   UNL     1       5.984   3.021  15.098  0.00  0.00    +0.000 F 
ENDBRANCH  16  19
ENDBRANCH   7  13
BRANCH   1  23
ATOM     23  C   UNL     1      -1.145  11.325  22.121  0.00  0.00    +0.000 C 
BRANCH  23  24
ATOM     24  N   UNL     1      -0.877  10.727  23.437  0.00  0.00    +0.000 NA
ATOM     25  H   UNL     1      -1.755  10.368  23.810  0.00  0.00    +0.000 HD
ATOM     26  H   UNL     1      -0.593  11.473  24.072  0.00  0.00    +0.000 HD
ENDBRANCH  23  24
ENDBRANCH   1  23
TORSDOF 4
ENDMDL
