MODEL 1
REMARK VINA RESULT:      -8.7      0.000      0.000
REMARK  Name = 
REMARK  10 active torsions:
REMARK  status: ('A' for Active; 'I' for Inactive)
REMARK    1  A    between atoms: C_1  and  C_2
REMARK    2  A    between atoms: C_2  and  O_3
REMARK    3  A    between atoms: O_3  and  C_4
REMARK    4  A    between atoms: C_4  and  C_6
REMARK    5  A    between atoms: C_10  and  N_11
REMARK    6  A    between atoms: N_11  and  C_12
REMARK    7  A    between atoms: C_12  and  C_13
REMARK    8  A    between atoms: C_13  and  C_14
REMARK    9  A    between atoms: C_14  and  C_15
REMARK   10  A    between atoms: C_22  and  C_23
REMARK                            x       y       z     vdW  Elec       q    Type
REMARK                         _______ _______ _______ _____ _____    ______ ____
ROOT
ATOM      1  C   UNL     1       4.214   4.434  17.566  0.00  0.00    +0.000 C 
ATOM      2  C   UNL     1       5.403   4.531  18.495  0.00  0.00    +0.000 C 
ATOM      3  O   UNL     1       5.634   3.726  19.393  0.00  0.00    +0.000 OA
ATOM      4  C   UNL     1       6.387   5.621  18.265  0.00  0.00    +0.000 C 
ATOM      5  C   UNL     1       6.214   6.558  17.320  0.00  0.00    +0.000 C 
ATOM      6  C   UNL     1       4.994   6.541  16.417  0.00  0.00    +0.000 C 
ATOM      7  C   UNL     1       3.776   5.816  17.030  0.00  0.00    +0.000 C 
ENDROOT
BRANCH   7   8
ATOM      8  C   UNL     1       3.034   6.738  17.999  0.00  0.00    +0.000 A 
ATOM      9  C   UNL     1       2.597   7.994  17.541  0.00  0.00    +0.000 A 
ATOM     10  C   UNL     1       1.932   8.878  18.391  0.00  0.00    +0.000 A 
ATOM     11  C   UNL     1       1.692   8.528  19.716  0.00  0.00    +0.000 A 
ATOM     12  C   UNL     1       2.123   7.296  20.192  0.00  0.00    +0.000 A 
ATOM     13  C   UNL     1       2.793   6.413  19.343  0.00  0.00    +0.000 A 
ENDBRANCH   7   8
BRANCH   1  14
ATOM     14  C   UNL     1       3.032   3.647  18.047  0.00  0.00    +0.000 C 
ATOM     15  O   UNL     1       2.057   3.418  17.339  0.00  0.00    +0.000 OA
BRANCH  14  16
ATOM     16  O   UNL     1       3.125   3.298  19.365  0.00  0.00    +0.000 OA
BRANCH  16  18
ATOM     17  C   UNL     1       1.272   3.381  20.909  0.00  0.00    +0.000 C 
ATOM     18  C   UNL     1       2.039   2.539  19.907  0.00  0.00    +0.000 C 
ENDBRANCH  16  18
ENDBRANCH  14  16
ENDBRANCH   1  14
BRANCH   5  19
ATOM     19  N   UNL     1       7.091   7.622  17.175  0.00  0.00    +0.000 N 
ATOM     20  H   UNL     1       7.354   7.833  16.213  0.00  0.00    +0.000 HD
BRANCH  19  21
ATOM     21  C   UNL     1       8.089   8.016  18.164  0.00  0.00    +0.000 C 
BRANCH  21  22
ATOM     22  C   UNL     1       8.359   9.522  18.118  0.00  0.00    +0.000 C 
BRANCH  22  23
ATOM     23  C   UNL     1       9.282   9.931  19.270  0.00  0.00    +0.000 C 
BRANCH  23  24
ATOM     24  C   UNL     1       9.976  11.247  19.029  0.00  0.00    +0.000 A 
ATOM     25  C   UNL     1      10.106  12.189  20.058  0.00  0.00    +0.000 A 
ATOM     26  C   UNL     1      10.751  13.407  19.829  0.00  0.00    +0.000 A 
ATOM     27  C   UNL     1      11.267  13.696  18.567  0.00  0.00    +0.000 A 
ATOM     28  C   UNL     1      11.143  12.768  17.536  0.00  0.00    +0.000 A 
ATOM     29  C   UNL     1      10.501  11.549  17.765  0.00  0.00    +0.000 A 
ENDBRANCH  23  24
ENDBRANCH  22  23
ENDBRANCH  21  22
ENDBRANCH  19  21
ENDBRANCH   5  19
TORSDOF 9
ENDMDL
MODEL 2
REMARK VINA RESULT:      -8.5      0.732      1.319
REMARK  Name = 
REMARK  10 active torsions:
REMARK  status: ('A' for Active; 'I' for Inactive)
REMARK    1  A    between atoms: C_1  and  C_2
REMARK    2  A    between atoms: C_2  and  O_3
REMARK    3  A    between atoms: O_3  and  C_4
REMARK    4  A    between atoms: C_4  and  C_6
REMARK    5  A    between atoms: C_10  and  N_11
REMARK    6  A    between atoms: N_11  and  C_12
REMARK    7  A    between atoms: C_12  and  C_13
REMARK    8  A    between atoms: C_13  and  C_14
REMARK    9  A    between atoms: C_14  and  C_15
REMARK   10  A    between atoms: C_22  and  C_23
REMARK                            x       y       z     vdW  Elec       q    Type
REMARK                         _______ _______ _______ _____ _____    ______ ____
ROOT
ATOM      1  C   UNL     1       4.107   4.131  17.671  0.00  0.00    +0.000 C 
ATOM      2  C   UNL     1       5.308   4.217  18.584  0.00  0.00    +0.000 C 
ATOM      3  O   UNL     1       5.503   3.457  19.529  0.00  0.00    +0.000 OA
ATOM      4  C   UNL     1       6.349   5.235  18.281  0.00  0.00    +0.000 C 
ATOM      5  C   UNL     1       6.220   6.120  17.281  0.00  0.00    +0.000 C 
ATOM      6  C   UNL     1       4.992   6.117  16.389  0.00  0.00    +0.000 C 
ATOM      7  C   UNL     1       3.741   5.500  17.054  0.00  0.00    +0.000 C 
ENDROOT
BRANCH   7   8
ATOM      8  C   UNL     1       3.061   6.520  17.969  0.00  0.00    +0.000 A 
ATOM      9  C   UNL     1       2.800   6.166  19.305  0.00  0.00    +0.000 A 
ATOM     10  C   UNL     1       2.166   7.055  20.173  0.00  0.00    +0.000 A 
ATOM     11  C   UNL     1       1.777   8.314  19.725  0.00  0.00    +0.000 A 
ATOM     12  C   UNL     1       2.017   8.680  18.407  0.00  0.00    +0.000 A 
ATOM     13  C   UNL     1       2.648   7.790  17.537  0.00  0.00    +0.000 A 
ENDBRANCH   7   8
BRANCH   1  14
ATOM     14  C   UNL     1       2.887   3.442  18.206  0.00  0.00    +0.000 C 
ATOM     15  O   UNL     1       1.857   3.318  17.553  0.00  0.00    +0.000 OA
BRANCH  14  16
ATOM     16  O   UNL     1       3.024   3.056  19.510  0.00  0.00    +0.000 OA
BRANCH  16  18
ATOM     17  C   UNL     1       1.489   3.216  21.367  0.00  0.00    +0.000 C 
ATOM     18  C   UNL     1       1.883   2.444  20.122  0.00  0.00    +0.000 C 
ENDBRANCH  16  18
ENDBRANCH  14  16
ENDBRANCH   1  14
BRANCH   5  19
ATOM     19  N   UNL     1       7.153   7.123  17.066  0.00  0.00    +0.000 N 
ATOM     20  H   UNL     1       7.648   7.063  16.177  0.00  0.00    +0.000 HD
BRANCH  19  21
ATOM     21  C   UNL     1       7.902   7.801  18.120  0.00  0.00    +0.000 C 
BRANCH  21  22
ATOM     22  C   UNL     1       8.110   9.282  17.794  0.00  0.00    +0.000 C 
BRANCH  22  23
ATOM     23  C   UNL     1       9.060   9.919  18.813  0.00  0.00    +0.000 C 
BRANCH  23  24
ATOM     24  C   UNL     1       9.627  11.235  18.344  0.00  0.00    +0.000 A 
ATOM     25  C   UNL     1      10.959  11.331  17.918  0.00  0.00    +0.000 A 
ATOM     26  C   UNL     1      11.479  12.552  17.484  0.00  0.00    +0.000 A 
ATOM     27  C   UNL     1      10.675  13.690  17.477  0.00  0.00    +0.000 A 
ATOM     28  C   UNL     1       9.349  13.608  17.899  0.00  0.00    +0.000 A 
ATOM     29  C   UNL     1       8.828  12.387  18.330  0.00  0.00    +0.000 A 
ENDBRANCH  23  24
ENDBRANCH  22  23
ENDBRANCH  21  22
ENDBRANCH  19  21
ENDBRANCH   5  19
TORSDOF 9
ENDMDL
MODEL 3
REMARK VINA RESULT:      -8.3      0.882      1.002
REMARK  Name = 
REMARK  10 active torsions:
REMARK  status: ('A' for Active; 'I' for Inactive)
REMARK    1  A    between atoms: C_1  and  C_2
REMARK    2  A    between atoms: C_2  and  O_3
REMARK    3  A    between atoms: O_3  and  C_4
REMARK    4  A    between atoms: C_4  and  C_6
REMARK    5  A    between atoms: C_10  and  N_11
REMARK    6  A    between atoms: N_11  and  C_12
REMARK    7  A    between atoms: C_12  and  C_13
REMARK    8  A    between atoms: C_13  and  C_14
REMARK    9  A    between atoms: C_14  and  C_15
REMARK   10  A    between atoms: C_22  and  C_23
REMARK                            x       y       z     vdW  Elec       q    Type
REMARK                         _______ _______ _______ _____ _____    ______ ____
ROOT
ATOM      1  C   UNL     1       3.377   4.709  17.691  0.00  0.00    +0.000 C 
ATOM      2  C   UNL     1       4.572   4.605  18.611  0.00  0.00    +0.000 C 
ATOM      3  O   UNL     1       4.710   3.722  19.454  0.00  0.00    +0.000 OA
ATOM      4  C   UNL     1       5.676   5.586  18.441  0.00  0.00    +0.000 C 
ATOM      5  C   UNL     1       5.612   6.596  17.561  0.00  0.00    +0.000 C 
ATOM      6  C   UNL     1       4.396   6.780  16.671  0.00  0.00    +0.000 C 
ATOM      7  C   UNL     1       3.103   6.164  17.250  0.00  0.00    +0.000 C 
ENDROOT
BRANCH   7   8
ATOM      8  C   UNL     1       2.477   7.102  18.283  0.00  0.00    +0.000 A 
ATOM      9  C   UNL     1       1.990   8.352  17.860  0.00  0.00    +0.000 A 
ATOM     10  C   UNL     1       1.427   9.249  18.768  0.00  0.00    +0.000 A 
ATOM     11  C   UNL     1       1.340   8.918  20.117  0.00  0.00    +0.000 A 
ATOM     12  C   UNL     1       1.823   7.692  20.558  0.00  0.00    +0.000 A 
ATOM     13  C   UNL     1       2.391   6.797  19.651  0.00  0.00    +0.000 A 
ENDBRANCH   7   8
BRANCH   1  14
ATOM     14  C   UNL     1       2.112   4.035  18.132  0.00  0.00    +0.000 C 
ATOM     15  O   UNL     1       1.070   4.101  17.491  0.00  0.00    +0.000 OA
BRANCH  14  16
ATOM     16  O   UNL     1       2.230   3.428  19.351  0.00  0.00    +0.000 OA
BRANCH  16  18
ATOM     17  C   UNL     1       1.389   2.790  21.522  0.00  0.00    +0.000 C 
ATOM     18  C   UNL     1       1.068   3.434  20.186  0.00  0.00    +0.000 C 
ENDBRANCH  16  18
ENDBRANCH  14  16
ENDBRANCH   1  14
BRANCH   5  19
ATOM     19  N   UNL     1       6.607   7.558  17.476  0.00  0.00    +0.000 N 
ATOM     20  H   UNL     1       6.423   8.306  16.809  0.00  0.00    +0.000 HD
BRANCH  19  21
ATOM     21  C   UNL     1       8.025   7.309  17.715  0.00  0.00    +0.000 C 
BRANCH  21  22
ATOM     22  C   UNL     1       8.598   8.285  18.746  0.00  0.00    +0.000 C 
BRANCH  22  23
ATOM     23  C   UNL     1       8.414   9.729  18.268  0.00  0.00    +0.000 C 
BRANCH  23  24
ATOM     24  C   UNL     1       9.472  10.663  18.798  0.00  0.00    +0.000 A 
ATOM     25  C   UNL     1       9.506  11.013  20.154  0.00  0.00    +0.000 A 
ATOM     26  C   UNL     1      10.489  11.878  20.639  0.00  0.00    +0.000 A 
ATOM     27  C   UNL     1      11.445  12.405  19.773  0.00  0.00    +0.000 A 
ATOM     28  C   UNL     1      11.421  12.065  18.422  0.00  0.00    +0.000 A 
ATOM     29  C   UNL     1      10.440  11.198  17.936  0.00  0.00    +0.000 A 
ENDBRANCH  23  24
ENDBRANCH  22  23
ENDBRANCH  21  22
ENDBRANCH  19  21
ENDBRANCH   5  19
TORSDOF 9
ENDMDL
MODEL 4
REMARK VINA RESULT:      -8.3      0.851      1.356
REMARK  Name = 
REMARK  10 active torsions:
REMARK  status: ('A' for Active; 'I' for Inactive)
REMARK    1  A    between atoms: C_1  and  C_2
REMARK    2  A    between atoms: C_2  and  O_3
REMARK    3  A    between atoms: O_3  and  C_4
REMARK    4  A    between atoms: C_4  and  C_6
REMARK    5  A    between atoms: C_10  and  N_11
REMARK    6  A    between atoms: N_11  and  C_12
REMARK    7  A    between atoms: C_12  and  C_13
REMARK    8  A    between atoms: C_13  and  C_14
REMARK    9  A    between atoms: C_14  and  C_15
REMARK   10  A    between atoms: C_22  and  C_23
REMARK                            x       y       z     vdW  Elec       q    Type
REMARK                         _______ _______ _______ _____ _____    ______ ____
ROOT
ATOM      1  C   UNL     1       4.517   4.597  18.128  0.00  0.00    +0.000 C 
ATOM      2  C   UNL     1       5.681   4.976  19.016  0.00  0.00    +0.000 C 
ATOM      3  O   UNL     1       6.011   4.343  20.015  0.00  0.00    +0.000 OA
ATOM      4  C   UNL     1       6.516   6.141  18.620  0.00  0.00    +0.000 C 
ATOM      5  C   UNL     1       6.226   6.904  17.556  0.00  0.00    +0.000 C 
ATOM      6  C   UNL     1       5.022   6.603  16.683  0.00  0.00    +0.000 C 
ATOM      7  C   UNL     1       3.906   5.821  17.411  0.00  0.00    +0.000 C 
ENDROOT
BRANCH   7   8
ATOM      8  C   UNL     1       3.047   6.768  18.251  0.00  0.00    +0.000 A 
ATOM      9  C   UNL     1       2.605   7.974  17.678  0.00  0.00    +0.000 A 
ATOM     10  C   UNL     1       1.835   8.877  18.410  0.00  0.00    +0.000 A 
ATOM     11  C   UNL     1       1.493   8.599  19.730  0.00  0.00    +0.000 A 
ATOM     12  C   UNL     1       1.927   7.417  20.318  0.00  0.00    +0.000 A 
ATOM     13  C   UNL     1       2.701   6.515  19.588  0.00  0.00    +0.000 A 
ENDBRANCH   7   8
BRANCH   1  14
ATOM     14  C   UNL     1       3.445   3.740  18.733  0.00  0.00    +0.000 C 
ATOM     15  O   UNL     1       3.471   3.376  19.903  0.00  0.00    +0.000 OA
BRANCH  14  16
ATOM     16  O   UNL     1       2.504   3.345  17.824  0.00  0.00    +0.000 OA
BRANCH  16  18
ATOM     17  C   UNL     1       0.684   2.153  18.870  0.00  0.00    +0.000 C 
ATOM     18  C   UNL     1       1.136   3.452  18.229  0.00  0.00    +0.000 C 
ENDBRANCH  16  18
ENDBRANCH  14  16
ENDBRANCH   1  14
BRANCH   5  19
ATOM     19  N   UNL     1       6.959   8.042  17.251  0.00  0.00    +0.000 N 
ATOM     20  H   UNL     1       6.808   8.408  16.311  0.00  0.00    +0.000 HD
BRANCH  19  21
ATOM     21  C   UNL     1       8.266   8.364  17.813  0.00  0.00    +0.000 C 
BRANCH  21  22
ATOM     22  C   UNL     1       8.497   9.877  17.861  0.00  0.00    +0.000 C 
BRANCH  22  23
ATOM     23  C   UNL     1       9.237  10.259  19.147  0.00  0.00    +0.000 C 
BRANCH  23  24
ATOM     24  C   UNL     1      10.316  11.287  18.920  0.00  0.00    +0.000 A 
ATOM     25  C   UNL     1      10.476  11.894  17.668  0.00  0.00    +0.000 A 
ATOM     26  C   UNL     1      11.477  12.847  17.464  0.00  0.00    +0.000 A 
ATOM     27  C   UNL     1      12.330  13.198  18.508  0.00  0.00    +0.000 A 
ATOM     28  C   UNL     1      12.181  12.600  19.758  0.00  0.00    +0.000 A 
ATOM     29  C   UNL     1      11.179  11.650  19.964  0.00  0.00    +0.000 A 
ENDBRANCH  23  24
ENDBRANCH  22  23
ENDBRANCH  21  22
ENDBRANCH  19  21
ENDBRANCH   5  19
TORSDOF 9
ENDMDL
MODEL 5
REMARK VINA RESULT:      -8.2      0.540      1.048
REMARK  Name = 
REMARK  10 active torsions:
REMARK  status: ('A' for Active; 'I' for Inactive)
REMARK    1  A    between atoms: C_1  and  C_2
REMARK    2  A    between atoms: C_2  and  O_3
REMARK    3  A    between atoms: O_3  and  C_4
REMARK    4  A    between atoms: C_4  and  C_6
REMARK    5  A    between atoms: C_10  and  N_11
REMARK    6  A    between atoms: N_11  and  C_12
REMARK    7  A    between atoms: C_12  and  C_13
REMARK    8  A    between atoms: C_13  and  C_14
REMARK    9  A    between atoms: C_14  and  C_15
REMARK   10  A    between atoms: C_22  and  C_23
REMARK                            x       y       z     vdW  Elec       q    Type
REMARK                         _______ _______ _______ _____ _____    ______ ____
ROOT
ATOM      1  C   UNL     1       4.314   4.452  17.519  0.00  0.00    +0.000 C 
ATOM      2  C   UNL     1       5.488   4.549  18.466  0.00  0.00    +0.000 C 
ATOM      3  O   UNL     1       5.715   3.733  19.356  0.00  0.00    +0.000 OA
ATOM      4  C   UNL     1       6.461   5.655  18.268  0.00  0.00    +0.000 C 
ATOM      5  C   UNL     1       6.291   6.603  17.335  0.00  0.00    +0.000 C 
ATOM      6  C   UNL     1       5.085   6.585  16.413  0.00  0.00    +0.000 C 
ATOM      7  C   UNL     1       3.867   5.836  16.997  0.00  0.00    +0.000 C 
ENDROOT
BRANCH   7   8
ATOM      8  C   UNL     1       3.099   6.734  17.969  0.00  0.00    +0.000 A 
ATOM      9  C   UNL     1       2.637   7.984  17.518  0.00  0.00    +0.000 A 
ATOM     10  C   UNL     1       1.948   8.846  18.371  0.00  0.00    +0.000 A 
ATOM     11  C   UNL     1       1.707   8.480  19.692  0.00  0.00    +0.000 A 
ATOM     12  C   UNL     1       2.163   7.254  20.160  0.00  0.00    +0.000 A 
ATOM     13  C   UNL     1       2.856   6.393  19.308  0.00  0.00    +0.000 A 
ENDBRANCH   7   8
BRANCH   1  14
ATOM     14  C   UNL     1       3.135   3.642  17.969  0.00  0.00    +0.000 C 
ATOM     15  O   UNL     1       2.259   3.265  17.199  0.00  0.00    +0.000 OA
BRANCH  14  16
ATOM     16  O   UNL     1       3.103   3.456  19.323  0.00  0.00    +0.000 OA
BRANCH  16  18
ATOM     17  C   UNL     1       1.489   3.041  21.068  0.00  0.00    +0.000 C 
ATOM     18  C   UNL     1       2.157   2.503  19.817  0.00  0.00    +0.000 C 
ENDBRANCH  16  18
ENDBRANCH  14  16
ENDBRANCH   1  14
BRANCH   5  19
ATOM     19  N   UNL     1       7.157   7.681  17.220  0.00  0.00    +0.000 N 
ATOM     20  H   UNL     1       7.300   8.015  16.268  0.00  0.00    +0.000 HD
BRANCH  19  21
ATOM     21  C   UNL     1       8.274   7.948  18.119  0.00  0.00    +0.000 C 
BRANCH  21  22
ATOM     22  C   UNL     1       8.226   9.377  18.664  0.00  0.00    +0.000 C 
BRANCH  22  23
ATOM     23  C   UNL     1       8.971  10.329  17.722  0.00  0.00    +0.000 C 
BRANCH  23  24
ATOM     24  C   UNL     1       9.987  11.184  18.435  0.00  0.00    +0.000 A 
ATOM     25  C   UNL     1      10.974  11.874  17.718  0.00  0.00    +0.000 A 
ATOM     26  C   UNL     1      11.912  12.665  18.383  0.00  0.00    +0.000 A 
ATOM     27  C   UNL     1      11.877  12.771  19.772  0.00  0.00    +0.000 A 
ATOM     28  C   UNL     1      10.901  12.089  20.497  0.00  0.00    +0.000 A 
ATOM     29  C   UNL     1       9.960  11.300  19.832  0.00  0.00    +0.000 A 
ENDBRANCH  23  24
ENDBRANCH  22  23
ENDBRANCH  21  22
ENDBRANCH  19  21
ENDBRANCH   5  19
TORSDOF 9
ENDMDL
MODEL 6
REMARK VINA RESULT:      -8.1      4.622      7.773
REMARK  Name = 
REMARK  10 active torsions:
REMARK  status: ('A' for Active; 'I' for Inactive)
REMARK    1  A    between atoms: C_1  and  C_2
REMARK    2  A    between atoms: C_2  and  O_3
REMARK    3  A    between atoms: O_3  and  C_4
REMARK    4  A    between atoms: C_4  and  C_6
REMARK    5  A    between atoms: C_10  and  N_11
REMARK    6  A    between atoms: N_11  and  C_12
REMARK    7  A    between atoms: C_12  and  C_13
REMARK    8  A    between atoms: C_13  and  C_14
REMARK    9  A    between atoms: C_14  and  C_15
REMARK   10  A    between atoms: C_22  and  C_23
REMARK                            x       y       z     vdW  Elec       q    Type
REMARK                         _______ _______ _______ _____ _____    ______ ____
ROOT
ATOM      1  C   UNL     1       2.921   4.107  18.927  0.00  0.00    +0.000 C 
ATOM      2  C   UNL     1       1.883   4.610  17.950  0.00  0.00    +0.000 C 
ATOM      3  O   UNL     1       1.071   3.884  17.383  0.00  0.00    +0.000 OA
ATOM      4  C   UNL     1       1.793   6.075  17.713  0.00  0.00    +0.000 C 
ATOM      5  C   UNL     1       2.645   6.947  18.272  0.00  0.00    +0.000 C 
ATOM      6  C   UNL     1       3.750   6.474  19.199  0.00  0.00    +0.000 C 
ATOM      7  C   UNL     1       4.175   5.008  18.964  0.00  0.00    +0.000 C 
ENDROOT
BRANCH   7   8
ATOM      8  C   UNL     1       5.140   4.912  17.781  0.00  0.00    +0.000 A 
ATOM      9  C   UNL     1       6.504   4.675  18.034  0.00  0.00    +0.000 A 
ATOM     10  C   UNL     1       7.425   4.597  16.990  0.00  0.00    +0.000 A 
ATOM     11  C   UNL     1       7.006   4.757  15.672  0.00  0.00    +0.000 A 
ATOM     12  C   UNL     1       5.666   5.000  15.401  0.00  0.00    +0.000 A 
ATOM     13  C   UNL     1       4.744   5.083  16.445  0.00  0.00    +0.000 A 
ENDBRANCH   7   8
BRANCH   1  14
ATOM     14  C   UNL     1       3.303   2.659  18.835  0.00  0.00    +0.000 C 
ATOM     15  O   UNL     1       3.816   2.173  17.833  0.00  0.00    +0.000 OA
BRANCH  14  16
ATOM     16  O   UNL     1       2.940   1.942  19.940  0.00  0.00    +0.000 OA
BRANCH  16  18
ATOM     17  C   UNL     1       1.399   2.602  21.677  0.00  0.00    +0.000 C 
ATOM     18  C   UNL     1       2.827   2.668  21.168  0.00  0.00    +0.000 C 
ENDBRANCH  16  18
ENDBRANCH  14  16
ENDBRANCH   1  14
BRANCH   5  19
ATOM     19  N   UNL     1       2.610   8.300  17.972  0.00  0.00    +0.000 N 
ATOM     20  H   UNL     1       3.490   8.687  17.633  0.00  0.00    +0.000 HD
BRANCH  19  21
ATOM     21  C   UNL     1       1.746   9.275  18.630  0.00  0.00    +0.000 C 
BRANCH  21  22
ATOM     22  C   UNL     1       0.478   9.540  17.815  0.00  0.00    +0.000 C 
BRANCH  22  23
ATOM     23  C   UNL     1      -0.547  10.301  18.662  0.00  0.00    +0.000 C 
BRANCH  23  24
ATOM     24  C   UNL     1      -1.841  10.555  17.931  0.00  0.00    +0.000 A 
ATOM     25  C   UNL     1      -2.819  11.397  18.476  0.00  0.00    +0.000 A 
ATOM     26  C   UNL     1      -4.016  11.629  17.794  0.00  0.00    +0.000 A 
ATOM     27  C   UNL     1      -4.248  11.017  16.564  0.00  0.00    +0.000 A 
ATOM     28  C   UNL     1      -3.283  10.176  16.012  0.00  0.00    +0.000 A 
ATOM     29  C   UNL     1      -2.085   9.946  16.692  0.00  0.00    +0.000 A 
ENDBRANCH  23  24
ENDBRANCH  22  23
ENDBRANCH  21  22
ENDBRANCH  19  21
ENDBRANCH   5  19
TORSDOF 9
ENDMDL
MODEL 7
REMARK VINA RESULT:      -8.1      0.733      1.473
REMARK  Name = 
REMARK  10 active torsions:
REMARK  status: ('A' for Active; 'I' for Inactive)
REMARK    1  A    between atoms: C_1  and  C_2
REMARK    2  A    between atoms: C_2  and  O_3
REMARK    3  A    between atoms: O_3  and  C_4
REMARK    4  A    between atoms: C_4  and  C_6
REMARK    5  A    between atoms: C_10  and  N_11
REMARK    6  A    between atoms: N_11  and  C_12
REMARK    7  A    between atoms: C_12  and  C_13
REMARK    8  A    between atoms: C_13  and  C_14
REMARK    9  A    between atoms: C_14  and  C_15
REMARK   10  A    between atoms: C_22  and  C_23
REMARK                            x       y       z     vdW  Elec       q    Type
REMARK                         _______ _______ _______ _____ _____    ______ ____
ROOT
ATOM      1  C   UNL     1       4.067   4.052  17.662  0.00  0.00    +0.000 C 
ATOM      2  C   UNL     1       5.258   4.094  18.592  0.00  0.00    +0.000 C 
ATOM      3  O   UNL     1       5.420   3.316  19.529  0.00  0.00    +0.000 OA
ATOM      4  C   UNL     1       6.328   5.089  18.319  0.00  0.00    +0.000 C 
ATOM      5  C   UNL     1       6.234   5.992  17.331  0.00  0.00    +0.000 C 
ATOM      6  C   UNL     1       5.019   6.032  16.422  0.00  0.00    +0.000 C 
ATOM      7  C   UNL     1       3.744   5.438  17.061  0.00  0.00    +0.000 C 
ENDROOT
BRANCH   7   8
ATOM      8  C   UNL     1       3.078   6.461  17.982  0.00  0.00    +0.000 A 
ATOM      9  C   UNL     1       2.768   6.087  19.302  0.00  0.00    +0.000 A 
ATOM     10  C   UNL     1       2.144   6.979  20.174  0.00  0.00    +0.000 A 
ATOM     11  C   UNL     1       1.813   8.262  19.746  0.00  0.00    +0.000 A 
ATOM     12  C   UNL     1       2.102   8.649  18.443  0.00  0.00    +0.000 A 
ATOM     13  C   UNL     1       2.722   7.755  17.569  0.00  0.00    +0.000 A 
ENDBRANCH   7   8
BRANCH   1  14
ATOM     14  C   UNL     1       2.823   3.386  18.172  0.00  0.00    +0.000 C 
ATOM     15  O   UNL     1       1.829   3.220  17.474  0.00  0.00    +0.000 OA
BRANCH  14  16
ATOM     16  O   UNL     1       2.893   3.073  19.500  0.00  0.00    +0.000 OA
BRANCH  16  18
ATOM     17  C   UNL     1       1.544   2.896  21.494  0.00  0.00    +0.000 C 
ATOM     18  C   UNL     1       1.751   2.423  20.067  0.00  0.00    +0.000 C 
ENDBRANCH  16  18
ENDBRANCH  14  16
ENDBRANCH   1  14
BRANCH   5  19
ATOM     19  N   UNL     1       7.195   6.974  17.143  0.00  0.00    +0.000 N 
ATOM     20  H   UNL     1       7.940   6.725  16.493  0.00  0.00    +0.000 HD
BRANCH  19  21
ATOM     21  C   UNL     1       7.586   7.957  18.148  0.00  0.00    +0.000 C 
BRANCH  21  22
ATOM     22  C   UNL     1       8.527   9.012  17.563  0.00  0.00    +0.000 C 
BRANCH  22  23
ATOM     23  C   UNL     1       8.317  10.357  18.265  0.00  0.00    +0.000 C 
BRANCH  23  24
ATOM     24  C   UNL     1       9.610  11.010  18.685  0.00  0.00    +0.000 A 
ATOM     25  C   UNL     1      10.554  11.409  17.730  0.00  0.00    +0.000 A 
ATOM     26  C   UNL     1      11.750  12.013  18.125  0.00  0.00    +0.000 A 
ATOM     27  C   UNL     1      12.015  12.219  19.478  0.00  0.00    +0.000 A 
ATOM     28  C   UNL     1      11.084  11.825  20.436  0.00  0.00    +0.000 A 
ATOM     29  C   UNL     1       9.887  11.223  20.043  0.00  0.00    +0.000 A 
ENDBRANCH  23  24
ENDBRANCH  22  23
ENDBRANCH  21  22
ENDBRANCH  19  21
ENDBRANCH   5  19
TORSDOF 9
ENDMDL
MODEL 8
REMARK VINA RESULT:      -8.0      0.801      1.401
REMARK  Name = 
REMARK  10 active torsions:
REMARK  status: ('A' for Active; 'I' for Inactive)
REMARK    1  A    between atoms: C_1  and  C_2
REMARK    2  A    between atoms: C_2  and  O_3
REMARK    3  A    between atoms: O_3  and  C_4
REMARK    4  A    between atoms: C_4  and  C_6
REMARK    5  A    between atoms: C_10  and  N_11
REMARK    6  A    between atoms: N_11  and  C_12
REMARK    7  A    between atoms: C_12  and  C_13
REMARK    8  A    between atoms: C_13  and  C_14
REMARK    9  A    between atoms: C_14  and  C_15
REMARK   10  A    between atoms: C_22  and  C_23
REMARK                            x       y       z     vdW  Elec       q    Type
REMARK                         _______ _______ _______ _____ _____    ______ ____
ROOT
ATOM      1  C   UNL     1       4.216   4.462  17.559  0.00  0.00    +0.000 C 
ATOM      2  C   UNL     1       5.415   4.556  18.475  0.00  0.00    +0.000 C 
ATOM      3  O   UNL     1       5.656   3.749  19.369  0.00  0.00    +0.000 OA
ATOM      4  C   UNL     1       6.395   5.649  18.239  0.00  0.00    +0.000 C 
ATOM      5  C   UNL     1       6.212   6.588  17.299  0.00  0.00    +0.000 C 
ATOM      6  C   UNL     1       4.982   6.573  16.409  0.00  0.00    +0.000 C 
ATOM      7  C   UNL     1       3.771   5.845  17.032  0.00  0.00    +0.000 C 
ENDROOT
BRANCH   7   8
ATOM      8  C   UNL     1       3.038   6.763  18.012  0.00  0.00    +0.000 A 
ATOM      9  C   UNL     1       2.816   6.315  19.327  0.00  0.00    +0.000 A 
ATOM     10  C   UNL     1       2.137   7.108  20.251  0.00  0.00    +0.000 A 
ATOM     11  C   UNL     1       1.663   8.364  19.882  0.00  0.00    +0.000 A 
ATOM     12  C   UNL     1       1.863   8.822  18.586  0.00  0.00    +0.000 A 
ATOM     13  C   UNL     1       2.539   8.026  17.659  0.00  0.00    +0.000 A 
ENDBRANCH   7   8
BRANCH   1  14
ATOM     14  C   UNL     1       3.040   3.671  18.049  0.00  0.00    +0.000 C 
ATOM     15  O   UNL     1       2.064   3.432  17.346  0.00  0.00    +0.000 OA
BRANCH  14  16
ATOM     16  O   UNL     1       3.139   3.332  19.369  0.00  0.00    +0.000 OA
BRANCH  16  18
ATOM     17  C   UNL     1       1.276   3.232  20.901  0.00  0.00    +0.000 C 
ATOM     18  C   UNL     1       2.118   2.476  19.891  0.00  0.00    +0.000 C 
ENDBRANCH  16  18
ENDBRANCH  14  16
ENDBRANCH   1  14
BRANCH   5  19
ATOM     19  N   UNL     1       7.086   7.654  17.149  0.00  0.00    +0.000 N 
ATOM     20  H   UNL     1       7.345   7.862  16.186  0.00  0.00    +0.000 HD
BRANCH  19  21
ATOM     21  C   UNL     1       8.085   8.053  18.135  0.00  0.00    +0.000 C 
BRANCH  21  22
ATOM     22  C   UNL     1       8.290   9.571  18.142  0.00  0.00    +0.000 C 
BRANCH  22  23
ATOM     23  C   UNL     1       9.532   9.934  18.961  0.00  0.00    +0.000 C 
BRANCH  23  24
ATOM     24  C   UNL     1       9.408  11.265  19.658  0.00  0.00    +0.000 A 
ATOM     25  C   UNL     1       9.272  11.335  21.051  0.00  0.00    +0.000 A 
ATOM     26  C   UNL     1       9.158  12.571  21.691  0.00  0.00    +0.000 A 
ATOM     27  C   UNL     1       9.173  13.748  20.944  0.00  0.00    +0.000 A 
ATOM     28  C   UNL     1       9.306  13.691  19.558  0.00  0.00    +0.000 A 
ATOM     29  C   UNL     1       9.423  12.456  18.918  0.00  0.00    +0.000 A 
ENDBRANCH  23  24
ENDBRANCH  22  23
ENDBRANCH  21  22
ENDBRANCH  19  21
ENDBRANCH   5  19
TORSDOF 9
ENDMDL
MODEL 9
REMARK VINA RESULT:      -7.9      4.647      6.920
REMARK  Name = 
REMARK  10 active torsions:
REMARK  status: ('A' for Active; 'I' for Inactive)
REMARK    1  A    between atoms: C_1  and  C_2
REMARK    2  A    between atoms: C_2  and  O_3
REMARK    3  A    between atoms: O_3  and  C_4
REMARK    4  A    between atoms: C_4  and  C_6
REMARK    5  A    between atoms: C_10  and  N_11
REMARK    6  A    between atoms: N_11  and  C_12
REMARK    7  A    between atoms: C_12  and  C_13
REMARK    8  A    between atoms: C_13  and  C_14
REMARK    9  A    between atoms: C_14  and  C_15
REMARK   10  A    between atoms: C_22  and  C_23
REMARK                            x       y       z     vdW  Elec       q    Type
REMARK                         _______ _______ _______ _____ _____    ______ ____
ROOT
ATOM      1  C   UNL     1       2.845   4.216  18.853  0.00  0.00    +0.000 C 
ATOM      2  C   UNL     1       1.894   4.821  17.846  0.00  0.00    +0.000 C 
ATOM      3  O   UNL     1       1.088   4.166  17.190  0.00  0.00    +0.000 OA
ATOM      4  C   UNL     1       1.885   6.299  17.689  0.00  0.00    +0.000 C 
ATOM      5  C   UNL     1       2.737   7.098  18.349  0.00  0.00    +0.000 C 
ATOM      6  C   UNL     1       3.760   6.522  19.312  0.00  0.00    +0.000 C 
ATOM      7  C   UNL     1       4.133   5.053  19.018  0.00  0.00    +0.000 C 
ENDROOT
BRANCH   7   8
ATOM      8  C   UNL     1       5.166   4.975  17.893  0.00  0.00    +0.000 A 
ATOM      9  C   UNL     1       4.758   5.256  16.576  0.00  0.00    +0.000 A 
ATOM     10  C   UNL     1       5.658   5.182  15.513  0.00  0.00    +0.000 A 
ATOM     11  C   UNL     1       6.983   4.823  15.741  0.00  0.00    +0.000 A 
ATOM     12  C   UNL     1       7.405   4.533  17.033  0.00  0.00    +0.000 A 
ATOM     13  C   UNL     1       6.503   4.603  18.096  0.00  0.00    +0.000 A 
ENDBRANCH   7   8
BRANCH   1  14
ATOM     14  C   UNL     1       3.167   2.759  18.702  0.00  0.00    +0.000 C 
ATOM     15  O   UNL     1       3.568   2.277  17.649  0.00  0.00    +0.000 OA
BRANCH  14  16
ATOM     16  O   UNL     1       2.883   2.031  19.823  0.00  0.00    +0.000 OA
BRANCH  16  18
ATOM     17  C   UNL     1       1.907   2.815  21.887  0.00  0.00    +0.000 C 
ATOM     18  C   UNL     1       1.644   2.319  20.478  0.00  0.00    +0.000 C 
ENDBRANCH  16  18
ENDBRANCH  14  16
ENDBRANCH   1  14
BRANCH   5  19
ATOM     19  N   UNL     1       2.781   8.466  18.125  0.00  0.00    +0.000 N 
ATOM     20  H   UNL     1       3.386   8.984  18.761  0.00  0.00    +0.000 HD
BRANCH  19  21
ATOM     21  C   UNL     1       1.683   9.253  17.573  0.00  0.00    +0.000 C 
BRANCH  21  22
ATOM     22  C   UNL     1       1.254  10.365  18.534  0.00  0.00    +0.000 C 
BRANCH  22  23
ATOM     23  C   UNL     1      -0.201  10.157  18.968  0.00  0.00    +0.000 C 
BRANCH  23  24
ATOM     24  C   UNL     1      -0.375  10.174  20.465  0.00  0.00    +0.000 A 
ATOM     25  C   UNL     1      -0.735  11.352  21.132  0.00  0.00    +0.000 A 
ATOM     26  C   UNL     1      -0.896  11.362  22.519  0.00  0.00    +0.000 A 
ATOM     27  C   UNL     1      -0.693  10.195  23.254  0.00  0.00    +0.000 A 
ATOM     28  C   UNL     1      -0.333   9.017  22.602  0.00  0.00    +0.000 A 
ATOM     29  C   UNL     1      -0.175   9.006  21.215  0.00  0.00    +0.000 A 
ENDBRANCH  23  24
ENDBRANCH  22  23
ENDBRANCH  21  22
ENDBRANCH  19  21
ENDBRANCH   5  19
TORSDOF 9
ENDMDL
