MODEL 1
REMARK VINA RESULT:      -6.5      0.000      0.000
REMARK  Name = 
REMARK  5 active torsions:
REMARK  status: ('A' for Active; 'I' for Inactive)
REMARK    1  A    between atoms: C_1  and  C_2
REMARK    2  A    between atoms: C_2  and  C_3
REMARK    3  A    between atoms: C_3  and  C_4
REMARK    4  A    between atoms: C_7  and  C_8
REMARK    5  A    between atoms: C_12  and  C_13
REMARK                            x       y       z     vdW  Elec       q    Type
REMARK                         _______ _______ _______ _____ _____    ______ ____
ROOT
ATOM      1  C   UNL     1       5.719   4.428  15.705  0.00  0.00    +0.000 C 
ATOM      2  N   UNL     1       5.004   3.770  16.572  0.00  0.00    +0.000 NA
ATOM      3  N   UNL     1       5.635   3.950  17.830  0.00  0.00    +0.000 N 
ATOM      4  C   UNL     1       4.966   4.412  19.010  0.00  0.00    +0.000 C 
ATOM      5  N   UNL     1       5.658   5.300  19.663  0.00  0.00    +0.000 NA
ATOM      6  N   UNL     1       6.873   5.418  19.007  0.00  0.00    +0.000 N 
ATOM      7  C   UNL     1       6.977   4.517  17.870  0.00  0.00    +0.000 C 
ATOM      8  S   UNL     1       7.150   5.286  16.271  0.00  0.00    +0.000 S 
ATOM      9  H   UNL     1       7.061   6.380  18.718  0.00  0.00    +0.000 HD
ENDROOT
BRANCH   4  10
ATOM     10  C   UNL     1       3.644   3.997  19.320  0.00  0.00    +0.000 A 
ATOM     11  S   UNL     1       3.345   2.652  20.335  0.00  0.00    +0.000 S 
ATOM     12  N   UNL     1       1.689   2.834  20.247  0.00  0.00    +0.000 NA
ATOM     13  N   UNL     1       1.323   3.858  19.501  0.00  0.00    +0.000 NA
ATOM     14  C   UNL     1       2.416   4.536  18.972  0.00  0.00    +0.000 A 
ATOM     15  C   UNL     1       2.155   5.702  18.088  0.00  0.00    +0.000 C 
ENDBRANCH   4  10
BRANCH   1  16
ATOM     16  C   UNL     1       5.354   4.554  14.253  0.00  0.00    +0.000 C 
BRANCH  16  18
ATOM     17  C   UNL     1       5.568   3.201  12.109  0.00  0.00    +0.000 C 
ATOM     18  C   UNL     1       6.274   3.729  13.351  0.00  0.00    +0.000 C 
ENDBRANCH  16  18
ENDBRANCH   1  16
TORSDOF 3
ENDMDL
MODEL 2
REMARK VINA RESULT:      -6.5      2.284      5.661
REMARK  Name = 
REMARK  5 active torsions:
REMARK  status: ('A' for Active; 'I' for Inactive)
REMARK    1  A    between atoms: C_1  and  C_2
REMARK    2  A    between atoms: C_2  and  C_3
REMARK    3  A    between atoms: C_3  and  C_4
REMARK    4  A    between atoms: C_7  and  C_8
REMARK    5  A    between atoms: C_12  and  C_13
REMARK                            x       y       z     vdW  Elec       q    Type
REMARK                         _______ _______ _______ _____ _____    ______ ____
ROOT
ATOM      1  C   UNL     1       2.864   6.282  19.186  0.00  0.00    +0.000 C 
ATOM      2  N   UNL     1       4.065   6.125  18.709  0.00  0.00    +0.000 NA
ATOM      3  N   UNL     1       4.331   4.731  18.748  0.00  0.00    +0.000 N 
ATOM      4  C   UNL     1       4.782   3.964  17.625  0.00  0.00    +0.000 C 
ATOM      5  N   UNL     1       4.162   2.825  17.516  0.00  0.00    +0.000 NA
ATOM      6  N   UNL     1       3.324   2.721  18.615  0.00  0.00    +0.000 N 
ATOM      7  C   UNL     1       3.439   3.864  19.507  0.00  0.00    +0.000 C 
ATOM      8  S   UNL     1       1.971   4.855  19.708  0.00  0.00    +0.000 S 
ATOM      9  H   UNL     1       2.349   2.578  18.342  0.00  0.00    +0.000 HD
ENDROOT
BRANCH   4  10
ATOM     10  C   UNL     1       5.721   4.490  16.698  0.00  0.00    +0.000 A 
ATOM     11  S   UNL     1       5.425   4.461  15.013  0.00  0.00    +0.000 S 
ATOM     12  N   UNL     1       6.855   5.238  14.653  0.00  0.00    +0.000 NA
ATOM     13  N   UNL     1       7.563   5.537  15.725  0.00  0.00    +0.000 NA
ATOM     14  C   UNL     1       6.934   5.129  16.896  0.00  0.00    +0.000 A 
ATOM     15  C   UNL     1       7.627   5.378  18.186  0.00  0.00    +0.000 C 
ENDBRANCH   4  10
BRANCH   1  16
ATOM     16  C   UNL     1       2.165   7.610  19.255  0.00  0.00    +0.000 C 
BRANCH  16  18
ATOM     17  C   UNL     1       1.901   9.800  17.987  0.00  0.00    +0.000 C 
ATOM     18  C   UNL     1       2.078   8.290  17.888  0.00  0.00    +0.000 C 
ENDBRANCH  16  18
ENDBRANCH   1  16
TORSDOF 3
ENDMDL
MODEL 3
REMARK VINA RESULT:      -6.4      1.491      1.826
REMARK  Name = 
REMARK  5 active torsions:
REMARK  status: ('A' for Active; 'I' for Inactive)
REMARK    1  A    between atoms: C_1  and  C_2
REMARK    2  A    between atoms: C_2  and  C_3
REMARK    3  A    between atoms: C_3  and  C_4
REMARK    4  A    between atoms: C_7  and  C_8
REMARK    5  A    between atoms: C_12  and  C_13
REMARK                            x       y       z     vdW  Elec       q    Type
REMARK                         _______ _______ _______ _____ _____    ______ ____
ROOT
ATOM      1  C   UNL     1       6.353   4.683  15.733  0.00  0.00    +0.000 C 
ATOM      2  N   UNL     1       5.477   3.894  16.286  0.00  0.00    +0.000 NA
ATOM      3  N   UNL     1       5.599   4.080  17.687  0.00  0.00    +0.000 N 
ATOM      4  C   UNL     1       4.504   4.388  18.559  0.00  0.00    +0.000 C 
ATOM      5  N   UNL     1       4.797   5.317  19.422  0.00  0.00    +0.000 NA
ATOM      6  N   UNL     1       6.137   5.622  19.238  0.00  0.00    +0.000 N 
ATOM      7  C   UNL     1       6.753   4.806  18.204  0.00  0.00    +0.000 C 
ATOM      8  S   UNL     1       7.366   5.679  16.775  0.00  0.00    +0.000 S 
ATOM      9  H   UNL     1       6.281   6.615  19.043  0.00  0.00    +0.000 HD
ENDROOT
BRANCH   4  10
ATOM     10  C   UNL     1       3.226   3.795  18.379  0.00  0.00    +0.000 A 
ATOM     11  S   UNL     1       1.842   4.743  18.044  0.00  0.00    +0.000 S 
ATOM     12  N   UNL     1       0.841   3.414  17.935  0.00  0.00    +0.000 NA
ATOM     13  N   UNL     1       1.477   2.274  18.128  0.00  0.00    +0.000 NA
ATOM     14  C   UNL     1       2.832   2.467  18.373  0.00  0.00    +0.000 A 
ATOM     15  C   UNL     1       3.673   1.271  18.633  0.00  0.00    +0.000 C 
ENDBRANCH   4  10
BRANCH   1  16
ATOM     16  C   UNL     1       6.504   4.845  14.247  0.00  0.00    +0.000 C 
BRANCH  16  18
ATOM     17  C   UNL     1       6.408   3.396  12.158  0.00  0.00    +0.000 C 
ATOM     18  C   UNL     1       5.731   3.781  13.467  0.00  0.00    +0.000 C 
ENDBRANCH  16  18
ENDBRANCH   1  16
TORSDOF 3
ENDMDL
MODEL 4
REMARK VINA RESULT:      -6.3      2.574      5.891
REMARK  Name = 
REMARK  5 active torsions:
REMARK  status: ('A' for Active; 'I' for Inactive)
REMARK    1  A    between atoms: C_1  and  C_2
REMARK    2  A    between atoms: C_2  and  C_3
REMARK    3  A    between atoms: C_3  and  C_4
REMARK    4  A    between atoms: C_7  and  C_8
REMARK    5  A    between atoms: C_12  and  C_13
REMARK                            x       y       z     vdW  Elec       q    Type
REMARK                         _______ _______ _______ _____ _____    ______ ____
ROOT
ATOM      1  C   UNL     1       2.409   4.970  20.192  0.00  0.00    +0.000 C 
ATOM      2  N   UNL     1       3.635   5.212  19.827  0.00  0.00    +0.000 NA
ATOM      3  N   UNL     1       4.092   4.042  19.165  0.00  0.00    +0.000 N 
ATOM      4  C   UNL     1       4.681   4.032  17.859  0.00  0.00    +0.000 C 
ATOM      5  N   UNL     1       4.231   3.065  17.113  0.00  0.00    +0.000 NA
ATOM      6  N   UNL     1       3.380   2.314  17.909  0.00  0.00    +0.000 N 
ATOM      7  C   UNL     1       3.306   2.820  19.271  0.00  0.00    +0.000 C 
ATOM      8  S   UNL     1       1.708   3.400  19.807  0.00  0.00    +0.000 S 
ATOM      9  H   UNL     1       2.445   2.237  17.505  0.00  0.00    +0.000 HD
ENDROOT
BRANCH   4  10
ATOM     10  C   UNL     1       5.567   5.061  17.439  0.00  0.00    +0.000 A 
ATOM     11  S   UNL     1       7.235   4.761  17.205  0.00  0.00    +0.000 S 
ATOM     12  N   UNL     1       7.543   6.325  16.714  0.00  0.00    +0.000 NA
ATOM     13  N   UNL     1       6.464   7.083  16.702  0.00  0.00    +0.000 NA
ATOM     14  C   UNL     1       5.331   6.383  17.102  0.00  0.00    +0.000 A 
ATOM     15  C   UNL     1       4.040   7.117  17.161  0.00  0.00    +0.000 C 
ENDBRANCH   4  10
BRANCH   1  16
ATOM     16  C   UNL     1       1.529   5.983  20.869  0.00  0.00    +0.000 C 
BRANCH  16  18
ATOM     17  C   UNL     1       1.133   8.466  21.255  0.00  0.00    +0.000 C 
ATOM     18  C   UNL     1       1.828   7.410  20.407  0.00  0.00    +0.000 C 
ENDBRANCH  16  18
ENDBRANCH   1  16
TORSDOF 3
ENDMDL
MODEL 5
REMARK VINA RESULT:      -6.3      2.380      5.687
REMARK  Name = 
REMARK  5 active torsions:
REMARK  status: ('A' for Active; 'I' for Inactive)
REMARK    1  A    between atoms: C_1  and  C_2
REMARK    2  A    between atoms: C_2  and  C_3
REMARK    3  A    between atoms: C_3  and  C_4
REMARK    4  A    between atoms: C_7  and  C_8
REMARK    5  A    between atoms: C_12  and  C_13
REMARK                            x       y       z     vdW  Elec       q    Type
REMARK                         _______ _______ _______ _____ _____    ______ ____
ROOT
ATOM      1  C   UNL     1       2.840   4.521  19.936  0.00  0.00    +0.000 C 
ATOM      2  N   UNL     1       3.639   4.244  18.945  0.00  0.00    +0.000 NA
ATOM      3  N   UNL     1       3.549   5.336  18.043  0.00  0.00    +0.000 N 
ATOM      4  C   UNL     1       4.677   6.063  17.540  0.00  0.00    +0.000 C 
ATOM      5  N   UNL     1       4.486   7.350  17.545  0.00  0.00    +0.000 NA
ATOM      6  N   UNL     1       3.181   7.556  17.965  0.00  0.00    +0.000 N 
ATOM      7  C   UNL     1       2.478   6.308  18.217  0.00  0.00    +0.000 C 
ATOM      8  S   UNL     1       1.940   6.035  19.895  0.00  0.00    +0.000 S 
ATOM      9  H   UNL     1       3.134   8.165  18.784  0.00  0.00    +0.000 HD
ENDROOT
BRANCH   4  10
ATOM     10  C   UNL     1       5.889   5.405  17.199  0.00  0.00    +0.000 A 
ATOM     11  S   UNL     1       7.133   5.172  18.351  0.00  0.00    +0.000 S 
ATOM     12  N   UNL     1       8.108   4.356  17.272  0.00  0.00    +0.000 NA
ATOM     13  N   UNL     1       7.562   4.230  16.078  0.00  0.00    +0.000 NA
ATOM     14  C   UNL     1       6.300   4.810  16.017  0.00  0.00    +0.000 A 
ATOM     15  C   UNL     1       5.571   4.766  14.723  0.00  0.00    +0.000 C 
ENDBRANCH   4  10
BRANCH   1  16
ATOM     16  C   UNL     1       2.691   3.649  21.151  0.00  0.00    +0.000 C 
BRANCH  16  18
ATOM     17  C   UNL     1       0.834   2.557  19.799  0.00  0.00    +0.000 C 
ATOM     18  C   UNL     1       1.343   2.930  21.185  0.00  0.00    +0.000 C 
ENDBRANCH  16  18
ENDBRANCH   1  16
TORSDOF 3
ENDMDL
MODEL 6
REMARK VINA RESULT:      -6.2      2.332      6.081
REMARK  Name = 
REMARK  5 active torsions:
REMARK  status: ('A' for Active; 'I' for Inactive)
REMARK    1  A    between atoms: C_1  and  C_2
REMARK    2  A    between atoms: C_2  and  C_3
REMARK    3  A    between atoms: C_3  and  C_4
REMARK    4  A    between atoms: C_7  and  C_8
REMARK    5  A    between atoms: C_12  and  C_13
REMARK                            x       y       z     vdW  Elec       q    Type
REMARK                         _______ _______ _______ _____ _____    ______ ____
ROOT
ATOM      1  C   UNL     1       2.829   6.195  19.437  0.00  0.00    +0.000 C 
ATOM      2  N   UNL     1       4.029   6.065  18.948  0.00  0.00    +0.000 NA
ATOM      3  N   UNL     1       4.302   4.673  18.926  0.00  0.00    +0.000 N 
ATOM      4  C   UNL     1       4.752   3.957  17.769  0.00  0.00    +0.000 C 
ATOM      5  N   UNL     1       4.137   2.820  17.614  0.00  0.00    +0.000 NA
ATOM      6  N   UNL     1       3.305   2.665  18.711  0.00  0.00    +0.000 N 
ATOM      7  C   UNL     1       3.419   3.769  19.651  0.00  0.00    +0.000 C 
ATOM      8  S   UNL     1       1.946   4.743  19.902  0.00  0.00    +0.000 S 
ATOM      9  H   UNL     1       2.330   2.529  18.437  0.00  0.00    +0.000 HD
ENDROOT
BRANCH   4  10
ATOM     10  C   UNL     1       5.684   4.527  16.862  0.00  0.00    +0.000 A 
ATOM     11  S   UNL     1       5.384   4.560  15.178  0.00  0.00    +0.000 S 
ATOM     12  N   UNL     1       6.807   5.364  14.845  0.00  0.00    +0.000 NA
ATOM     13  N   UNL     1       7.514   5.629  15.926  0.00  0.00    +0.000 NA
ATOM     14  C   UNL     1       6.891   5.170  17.082  0.00  0.00    +0.000 A 
ATOM     15  C   UNL     1       7.585   5.376  18.379  0.00  0.00    +0.000 C 
ENDBRANCH   4  10
BRANCH   1  16
ATOM     16  C   UNL     1       2.124   7.516  19.567  0.00  0.00    +0.000 C 
BRANCH  16  18
ATOM     17  C   UNL     1       0.742   9.020  21.083  0.00  0.00    +0.000 C 
ATOM     18  C   UNL     1       1.426   7.669  20.919  0.00  0.00    +0.000 C 
ENDBRANCH  16  18
ENDBRANCH   1  16
TORSDOF 3
ENDMDL
MODEL 7
REMARK VINA RESULT:      -6.2      1.831      2.214
REMARK  Name = 
REMARK  5 active torsions:
REMARK  status: ('A' for Active; 'I' for Inactive)
REMARK    1  A    between atoms: C_1  and  C_2
REMARK    2  A    between atoms: C_2  and  C_3
REMARK    3  A    between atoms: C_3  and  C_4
REMARK    4  A    between atoms: C_7  and  C_8
REMARK    5  A    between atoms: C_12  and  C_13
REMARK                            x       y       z     vdW  Elec       q    Type
REMARK                         _______ _______ _______ _____ _____    ______ ____
ROOT
ATOM      1  C   UNL     1       5.402   4.576  16.442  0.00  0.00    +0.000 C 
ATOM      2  N   UNL     1       4.969   4.189  17.607  0.00  0.00    +0.000 NA
ATOM      3  N   UNL     1       4.407   5.337  18.225  0.00  0.00    +0.000 N 
ATOM      4  C   UNL     1       3.086   5.390  18.779  0.00  0.00    +0.000 C 
ATOM      5  N   UNL     1       2.456   6.485  18.468  0.00  0.00    +0.000 NA
ATOM      6  N   UNL     1       3.353   7.273  17.762  0.00  0.00    +0.000 N 
ATOM      7  C   UNL     1       4.661   6.648  17.641  0.00  0.00    +0.000 C 
ATOM      8  S   UNL     1       5.198   6.266  15.984  0.00  0.00    +0.000 S 
ATOM      9  H   UNL     1       2.994   7.531  16.841  0.00  0.00    +0.000 HD
ENDROOT
BRANCH   4  10
ATOM     10  C   UNL     1       2.535   4.287  19.485  0.00  0.00    +0.000 A 
ATOM     11  S   UNL     1       2.197   4.378  21.160  0.00  0.00    +0.000 S 
ATOM     12  N   UNL     1       1.584   2.829  21.216  0.00  0.00    +0.000 NA
ATOM     13  N   UNL     1       1.603   2.224  20.044  0.00  0.00    +0.000 NA
ATOM     14  C   UNL     1       2.132   3.037  19.047  0.00  0.00    +0.000 A 
ATOM     15  C   UNL     1       2.239   2.479  17.674  0.00  0.00    +0.000 C 
ENDBRANCH   4  10
BRANCH   1  16
ATOM     16  C   UNL     1       6.010   3.645  15.431  0.00  0.00    +0.000 C 
BRANCH  16  18
ATOM     17  C   UNL     1       6.129   3.580  12.891  0.00  0.00    +0.000 C 
ATOM     18  C   UNL     1       6.433   4.373  14.155  0.00  0.00    +0.000 C 
ENDBRANCH  16  18
ENDBRANCH   1  16
TORSDOF 3
ENDMDL
MODEL 8
REMARK VINA RESULT:      -6.2      2.349      3.836
REMARK  Name = 
REMARK  5 active torsions:
REMARK  status: ('A' for Active; 'I' for Inactive)
REMARK    1  A    between atoms: C_1  and  C_2
REMARK    2  A    between atoms: C_2  and  C_3
REMARK    3  A    between atoms: C_3  and  C_4
REMARK    4  A    between atoms: C_7  and  C_8
REMARK    5  A    between atoms: C_12  and  C_13
REMARK                            x       y       z     vdW  Elec       q    Type
REMARK                         _______ _______ _______ _____ _____    ______ ____
ROOT
ATOM      1  C   UNL     1       6.180   4.843  17.997  0.00  0.00    +0.000 C 
ATOM      2  N   UNL     1       5.221   4.844  18.878  0.00  0.00    +0.000 NA
ATOM      3  N   UNL     1       4.022   4.590  18.163  0.00  0.00    +0.000 N 
ATOM      4  C   UNL     1       3.083   3.562  18.502  0.00  0.00    +0.000 C 
ATOM      5  N   UNL     1       2.661   2.906  17.461  0.00  0.00    +0.000 NA
ATOM      6  N   UNL     1       3.222   3.518  16.351  0.00  0.00    +0.000 N 
ATOM      7  C   UNL     1       4.038   4.668  16.709  0.00  0.00    +0.000 C 
ATOM      8  S   UNL     1       5.772   4.556  16.307  0.00  0.00    +0.000 S 
ATOM      9  H   UNL     1       3.760   2.862  15.782  0.00  0.00    +0.000 HD
ENDROOT
BRANCH   4  10
ATOM     10  C   UNL     1       2.775   3.258  19.855  0.00  0.00    +0.000 A 
ATOM     11  S   UNL     1       1.348   3.842  20.598  0.00  0.00    +0.000 S 
ATOM     12  N   UNL     1       1.674   3.076  22.043  0.00  0.00    +0.000 NA
ATOM     13  N   UNL     1       2.798   2.387  22.018  0.00  0.00    +0.000 NA
ATOM     14  C   UNL     1       3.434   2.470  20.785  0.00  0.00    +0.000 A 
ATOM     15  C   UNL     1       4.729   1.762  20.616  0.00  0.00    +0.000 C 
ENDBRANCH   4  10
BRANCH   1  16
ATOM     16  C   UNL     1       7.632   5.007  18.349  0.00  0.00    +0.000 C 
BRANCH  16  18
ATOM     17  C   UNL     1       7.694   7.471  17.720  0.00  0.00    +0.000 C 
ATOM     18  C   UNL     1       7.961   6.431  18.800  0.00  0.00    +0.000 C 
ENDBRANCH  16  18
ENDBRANCH   1  16
TORSDOF 3
ENDMDL
MODEL 9
REMARK VINA RESULT:      -6.1      2.115      3.633
REMARK  Name = 
REMARK  5 active torsions:
REMARK  status: ('A' for Active; 'I' for Inactive)
REMARK    1  A    between atoms: C_1  and  C_2
REMARK    2  A    between atoms: C_2  and  C_3
REMARK    3  A    between atoms: C_3  and  C_4
REMARK    4  A    between atoms: C_7  and  C_8
REMARK    5  A    between atoms: C_12  and  C_13
REMARK                            x       y       z     vdW  Elec       q    Type
REMARK                         _______ _______ _______ _____ _____    ______ ____
ROOT
ATOM      1  C   UNL     1       6.787   6.119  17.666  0.00  0.00    +0.000 C 
ATOM      2  N   UNL     1       5.544   6.203  18.044  0.00  0.00    +0.000 NA
ATOM      3  N   UNL     1       4.845   5.182  17.348  0.00  0.00    +0.000 N 
ATOM      4  C   UNL     1       4.007   4.205  17.978  0.00  0.00    +0.000 C 
ATOM      5  N   UNL     1       4.195   3.006  17.509  0.00  0.00    +0.000 NA
ATOM      6  N   UNL     1       5.107   3.125  16.471  0.00  0.00    +0.000 N 
ATOM      7  C   UNL     1       5.505   4.504  16.241  0.00  0.00    +0.000 C 
ATOM      8  S   UNL     1       7.230   4.877  16.497  0.00  0.00    +0.000 S 
ATOM      9  H   UNL     1       5.928   2.534  16.613  0.00  0.00    +0.000 HD
ENDROOT
BRANCH   4  10
ATOM     10  C   UNL     1       3.166   4.547  19.071  0.00  0.00    +0.000 A 
ATOM     11  S   UNL     1       2.967   3.496  20.407  0.00  0.00    +0.000 S 
ATOM     12  N   UNL     1       1.952   4.550  21.206  0.00  0.00    +0.000 NA
ATOM     13  N   UNL     1       1.744   5.669  20.540  0.00  0.00    +0.000 NA
ATOM     14  C   UNL     1       2.429   5.691  19.330  0.00  0.00    +0.000 A 
ATOM     15  C   UNL     1       2.271   6.883  18.458  0.00  0.00    +0.000 C 
ENDBRANCH   4  10
BRANCH   1  16
ATOM     16  C   UNL     1       7.885   6.981  18.222  0.00  0.00    +0.000 C 
BRANCH  16  18
ATOM     17  C   UNL     1       8.641   9.396  18.475  0.00  0.00    +0.000 C 
ATOM     18  C   UNL     1       7.870   8.391  17.631  0.00  0.00    +0.000 C 
ENDBRANCH  16  18
ENDBRANCH   1  16
TORSDOF 3
ENDMDL
