MODEL 1
REMARK VINA RESULT:      -7.0      0.000      0.000
REMARK  Name = 
REMARK  3 active torsions:
REMARK  status: ('A' for Active; 'I' for Inactive)
REMARK    1  A    between atoms: C_2  and  S_3
REMARK    2  A    between atoms: S_3  and  C_4
REMARK    3  A    between atoms: C_4  and  C_5
REMARK                            x       y       z     vdW  Elec       q    Type
REMARK                         _______ _______ _______ _____ _____    ______ ____
ROOT
ATOM      1  C   UNL     1       5.110   4.494  19.210  0.00  0.00    +0.000 C 
ATOM      2  O   UNL     1       5.524   3.356  19.443  0.00  0.00    +0.000 OA
ATOM      3  N   UNL     1       3.753   4.783  18.966  0.00  0.00    +0.000 N 
ATOM      4  C   UNL     1       2.748   3.759  18.952  0.00  0.00    +0.000 A 
ATOM      5  C   UNL     1       2.992   2.599  18.187  0.00  0.00    +0.000 A 
ATOM      6  C   UNL     1       2.034   1.588  18.065  0.00  0.00    +0.000 A 
ATOM      7  C   UNL     1       0.820   1.703  18.723  0.00  0.00    +0.000 A 
ATOM      8  C   UNL     1       0.562   2.834  19.493  0.00  0.00    +0.000 A 
ATOM      9  C   UNL     1       1.507   3.876  19.619  0.00  0.00    +0.000 A 
ATOM     10  C   UNL     1       1.078   5.019  20.519  0.00  0.00    +0.000 C 
ATOM     11  C   UNL     1       2.094   6.112  20.832  0.00  0.00    +0.000 C 
ATOM     12  C   UNL     1       2.511   6.792  19.562  0.00  0.00    +0.000 A 
ATOM     13  C   UNL     1       2.107   8.095  19.258  0.00  0.00    +0.000 A 
ATOM     14  C   UNL     1       2.493   8.689  18.055  0.00  0.00    +0.000 A 
ATOM     15  C   UNL     1       3.280   7.985  17.145  0.00  0.00    +0.000 A 
ATOM     16  C   UNL     1       3.682   6.684  17.438  0.00  0.00    +0.000 A 
ATOM     17  C   UNL     1       3.301   6.086  18.647  0.00  0.00    +0.000 A 
ENDROOT
BRANCH   1  18
ATOM     18  C   UNL     1       6.043   5.714  19.288  0.00  0.00    +0.000 C 
BRANCH  18  19
ATOM     19  S   UNL     1       7.514   5.566  18.232  0.00  0.00    +0.000 S 
BRANCH  19  21
ATOM     20  N   UNL     1       7.603   8.270  17.333  0.00  0.00    +0.000 NA
ATOM     21  C   UNL     1       7.558   7.160  17.674  0.00  0.00    +0.000 C 
ENDBRANCH  19  21
ENDBRANCH  18  19
ENDBRANCH   1  18
TORSDOF 3
ENDMDL
MODEL 2
REMARK VINA RESULT:      -6.6      1.418      1.506
REMARK  Name = 
REMARK  3 active torsions:
REMARK  status: ('A' for Active; 'I' for Inactive)
REMARK    1  A    between atoms: C_2  and  S_3
REMARK    2  A    between atoms: S_3  and  C_4
REMARK    3  A    between atoms: C_4  and  C_5
REMARK                            x       y       z     vdW  Elec       q    Type
REMARK                         _______ _______ _______ _____ _____    ______ ____
ROOT
ATOM      1  C   UNL     1       4.665   5.515  17.952  0.00  0.00    +0.000 C 
ATOM      2  O   UNL     1       5.251   4.449  17.749  0.00  0.00    +0.000 OA
ATOM      3  N   UNL     1       3.315   5.587  18.347  0.00  0.00    +0.000 N 
ATOM      4  C   UNL     1       2.512   4.411  18.528  0.00  0.00    +0.000 A 
ATOM      5  C   UNL     1       2.514   3.442  17.504  0.00  0.00    +0.000 A 
ATOM      6  C   UNL     1       1.705   2.304  17.572  0.00  0.00    +0.000 A 
ATOM      7  C   UNL     1       0.893   2.099  18.675  0.00  0.00    +0.000 A 
ATOM      8  C   UNL     1       0.882   3.037  19.703  0.00  0.00    +0.000 A 
ATOM      9  C   UNL     1       1.679   4.202  19.651  0.00  0.00    +0.000 A 
ATOM     10  C   UNL     1       1.571   5.103  20.866  0.00  0.00    +0.000 C 
ATOM     11  C   UNL     1       2.506   6.302  20.962  0.00  0.00    +0.000 C 
ATOM     12  C   UNL     1       2.260   7.227  19.807  0.00  0.00    +0.000 A 
ATOM     13  C   UNL     1       1.636   8.466  19.977  0.00  0.00    +0.000 A 
ATOM     14  C   UNL     1       1.400   9.292  18.877  0.00  0.00    +0.000 A 
ATOM     15  C   UNL     1       1.780   8.885  17.599  0.00  0.00    +0.000 A 
ATOM     16  C   UNL     1       2.398   7.650  17.420  0.00  0.00    +0.000 A 
ATOM     17  C   UNL     1       2.642   6.820  18.523  0.00  0.00    +0.000 A 
ENDROOT
BRANCH   1  18
ATOM     18  C   UNL     1       5.412   6.859  17.899  0.00  0.00    +0.000 C 
BRANCH  18  19
ATOM     19  S   UNL     1       7.205   6.679  17.664  0.00  0.00    +0.000 S 
BRANCH  19  21
ATOM     20  N   UNL     1       7.775   5.403  20.149  0.00  0.00    +0.000 NA
ATOM     21  C   UNL     1       7.551   5.900  19.123  0.00  0.00    +0.000 C 
ENDBRANCH  19  21
ENDBRANCH  18  19
ENDBRANCH   1  18
TORSDOF 3
ENDMDL
MODEL 3
REMARK VINA RESULT:      -6.4      2.358      5.062
REMARK  Name = 
REMARK  3 active torsions:
REMARK  status: ('A' for Active; 'I' for Inactive)
REMARK    1  A    between atoms: C_2  and  S_3
REMARK    2  A    between atoms: S_3  and  C_4
REMARK    3  A    between atoms: C_4  and  C_5
REMARK                            x       y       z     vdW  Elec       q    Type
REMARK                         _______ _______ _______ _____ _____    ______ ____
ROOT
ATOM      1  C   UNL     1       2.988   3.993  18.384  0.00  0.00    +0.000 C 
ATOM      2  O   UNL     1       3.624   3.003  18.012  0.00  0.00    +0.000 OA
ATOM      3  N   UNL     1       3.579   5.254  18.587  0.00  0.00    +0.000 N 
ATOM      4  C   UNL     1       4.983   5.477  18.391  0.00  0.00    +0.000 A 
ATOM      5  C   UNL     1       5.888   4.578  18.990  0.00  0.00    +0.000 A 
ATOM      6  C   UNL     1       7.271   4.765  18.906  0.00  0.00    +0.000 A 
ATOM      7  C   UNL     1       7.780   5.844  18.200  0.00  0.00    +0.000 A 
ATOM      8  C   UNL     1       6.905   6.738  17.590  0.00  0.00    +0.000 A 
ATOM      9  C   UNL     1       5.504   6.579  17.674  0.00  0.00    +0.000 A 
ATOM     10  C   UNL     1       4.698   7.625  16.928  0.00  0.00    +0.000 C 
ATOM     11  C   UNL     1       3.188   7.445  16.839  0.00  0.00    +0.000 C 
ATOM     12  C   UNL     1       2.597   7.453  18.218  0.00  0.00    +0.000 A 
ATOM     13  C   UNL     1       1.833   8.527  18.685  0.00  0.00    +0.000 A 
ATOM     14  C   UNL     1       1.319   8.514  19.982  0.00  0.00    +0.000 A 
ATOM     15  C   UNL     1       1.568   7.432  20.825  0.00  0.00    +0.000 A 
ATOM     16  C   UNL     1       2.332   6.360  20.369  0.00  0.00    +0.000 A 
ATOM     17  C   UNL     1       2.845   6.367  19.065  0.00  0.00    +0.000 A 
ENDROOT
BRANCH   1  18
ATOM     18  C   UNL     1       1.458   3.945  18.542  0.00  0.00    +0.000 C 
BRANCH  18  19
ATOM     19  S   UNL     1       0.865   2.443  19.376  0.00  0.00    +0.000 S 
BRANCH  19  21
ATOM     20  N   UNL     1       1.963   2.989  21.950  0.00  0.00    +0.000 NA
ATOM     21  C   UNL     1       1.490   2.770  20.911  0.00  0.00    +0.000 C 
ENDBRANCH  19  21
ENDBRANCH  18  19
ENDBRANCH   1  18
TORSDOF 3
ENDMDL
MODEL 4
REMARK VINA RESULT:      -6.4      1.084      1.131
REMARK  Name = 
REMARK  3 active torsions:
REMARK  status: ('A' for Active; 'I' for Inactive)
REMARK    1  A    between atoms: C_2  and  S_3
REMARK    2  A    between atoms: S_3  and  C_4
REMARK    3  A    between atoms: C_4  and  C_5
REMARK                            x       y       z     vdW  Elec       q    Type
REMARK                         _______ _______ _______ _____ _____    ______ ____
ROOT
ATOM      1  C   UNL     1       4.848   5.246  18.448  0.00  0.00    +0.000 C 
ATOM      2  O   UNL     1       5.420   4.155  18.376  0.00  0.00    +0.000 OA
ATOM      3  N   UNL     1       3.457   5.373  18.624  0.00  0.00    +0.000 N 
ATOM      4  C   UNL     1       2.594   4.230  18.716  0.00  0.00    +0.000 A 
ATOM      5  C   UNL     1       2.722   3.221  17.739  0.00  0.00    +0.000 A 
ATOM      6  C   UNL     1       1.872   2.111  17.717  0.00  0.00    +0.000 A 
ATOM      7  C   UNL     1       0.890   1.974  18.686  0.00  0.00    +0.000 A 
ATOM      8  C   UNL     1       0.753   2.951  19.667  0.00  0.00    +0.000 A 
ATOM      9  C   UNL     1       1.589   4.089  19.700  0.00  0.00    +0.000 A 
ATOM     10  C   UNL     1       1.325   5.040  20.852  0.00  0.00    +0.000 C 
ATOM     11  C   UNL     1       2.276   6.214  21.053  0.00  0.00    +0.000 C 
ATOM     12  C   UNL     1       2.246   7.100  19.843  0.00  0.00    +0.000 A 
ATOM     13  C   UNL     1       1.647   8.363  19.870  0.00  0.00    +0.000 A 
ATOM     14  C   UNL     1       1.615   9.152  18.719  0.00  0.00    +0.000 A 
ATOM     15  C   UNL     1       2.175   8.684  17.532  0.00  0.00    +0.000 A 
ATOM     16  C   UNL     1       2.769   7.424  17.495  0.00  0.00    +0.000 A 
ATOM     17  C   UNL     1       2.808   6.631  18.650  0.00  0.00    +0.000 A 
ENDROOT
BRANCH   1  18
ATOM     18  C   UNL     1       5.641   6.564  18.467  0.00  0.00    +0.000 C 
BRANCH  18  19
ATOM     19  S   UNL     1       7.420   6.340  18.165  0.00  0.00    +0.000 S 
BRANCH  19  21
ATOM     20  N   UNL     1       7.312   5.730  15.382  0.00  0.00    +0.000 NA
ATOM     21  C   UNL     1       7.329   5.975  16.518  0.00  0.00    +0.000 C 
ENDBRANCH  19  21
ENDBRANCH  18  19
ENDBRANCH   1  18
TORSDOF 3
ENDMDL
MODEL 5
REMARK VINA RESULT:      -6.2      3.027      5.336
REMARK  Name = 
REMARK  3 active torsions:
REMARK  status: ('A' for Active; 'I' for Inactive)
REMARK    1  A    between atoms: C_2  and  S_3
REMARK    2  A    between atoms: S_3  and  C_4
REMARK    3  A    between atoms: C_4  and  C_5
REMARK                            x       y       z     vdW  Elec       q    Type
REMARK                         _______ _______ _______ _____ _____    ______ ____
ROOT
ATOM      1  C   UNL     1       3.345   7.295  17.432  0.00  0.00    +0.000 C 
ATOM      2  O   UNL     1       3.899   8.172  16.764  0.00  0.00    +0.000 OA
ATOM      3  N   UNL     1       3.809   5.968  17.494  0.00  0.00    +0.000 N 
ATOM      4  C   UNL     1       4.963   5.530  16.761  0.00  0.00    +0.000 A 
ATOM      5  C   UNL     1       5.041   5.853  15.391  0.00  0.00    +0.000 A 
ATOM      6  C   UNL     1       6.096   5.404  14.592  0.00  0.00    +0.000 A 
ATOM      7  C   UNL     1       7.109   4.640  15.150  0.00  0.00    +0.000 A 
ATOM      8  C   UNL     1       7.059   4.319  16.503  0.00  0.00    +0.000 A 
ATOM      9  C   UNL     1       5.995   4.748  17.328  0.00  0.00    +0.000 A 
ATOM     10  C   UNL     1       6.111   4.335  18.783  0.00  0.00    +0.000 C 
ATOM     11  C   UNL     1       5.088   4.881  19.772  0.00  0.00    +0.000 C 
ATOM     12  C   UNL     1       3.714   4.426  19.379  0.00  0.00    +0.000 A 
ATOM     13  C   UNL     1       3.018   3.466  20.118  0.00  0.00    +0.000 A 
ATOM     14  C   UNL     1       1.750   3.047  19.710  0.00  0.00    +0.000 A 
ATOM     15  C   UNL     1       1.171   3.580  18.559  0.00  0.00    +0.000 A 
ATOM     16  C   UNL     1       1.861   4.534  17.815  0.00  0.00    +0.000 A 
ATOM     17  C   UNL     1       3.131   4.961  18.224  0.00  0.00    +0.000 A 
ENDROOT
BRANCH   1  18
ATOM     18  C   UNL     1       2.157   7.625  18.352  0.00  0.00    +0.000 C 
BRANCH  18  19
ATOM     19  S   UNL     1       1.509   9.307  18.120  0.00  0.00    +0.000 S 
BRANCH  19  21
ATOM     20  N   UNL     1       0.550   9.687  20.778  0.00  0.00    +0.000 NA
ATOM     21  C   UNL     1       0.918   9.545  19.685  0.00  0.00    +0.000 C 
ENDBRANCH  19  21
ENDBRANCH  18  19
ENDBRANCH   1  18
TORSDOF 3
ENDMDL
MODEL 6
REMARK VINA RESULT:      -6.1      1.855      2.722
REMARK  Name = 
REMARK  3 active torsions:
REMARK  status: ('A' for Active; 'I' for Inactive)
REMARK    1  A    between atoms: C_2  and  S_3
REMARK    2  A    between atoms: S_3  and  C_4
REMARK    3  A    between atoms: C_4  and  C_5
REMARK                            x       y       z     vdW  Elec       q    Type
REMARK                         _______ _______ _______ _____ _____    ______ ____
ROOT
ATOM      1  C   UNL     1       5.892   3.876  18.951  0.00  0.00    +0.000 C 
ATOM      2  O   UNL     1       5.745   3.296  20.030  0.00  0.00    +0.000 OA
ATOM      3  N   UNL     1       4.825   4.159  18.078  0.00  0.00    +0.000 N 
ATOM      4  C   UNL     1       3.475   3.771  18.376  0.00  0.00    +0.000 A 
ATOM      5  C   UNL     1       3.240   2.441  18.781  0.00  0.00    +0.000 A 
ATOM      6  C   UNL     1       1.948   1.966  19.021  0.00  0.00    +0.000 A 
ATOM      7  C   UNL     1       0.863   2.817  18.884  0.00  0.00    +0.000 A 
ATOM      8  C   UNL     1       1.072   4.138  18.496  0.00  0.00    +0.000 A 
ATOM      9  C   UNL     1       2.367   4.636  18.233  0.00  0.00    +0.000 A 
ATOM     10  C   UNL     1       2.418   6.103  17.851  0.00  0.00    +0.000 C 
ATOM     11  C   UNL     1       3.784   6.762  17.698  0.00  0.00    +0.000 C 
ATOM     12  C   UNL     1       4.552   6.080  16.604  0.00  0.00    +0.000 A 
ATOM     13  C   UNL     1       4.788   6.699  15.374  0.00  0.00    +0.000 A 
ATOM     14  C   UNL     1       5.485   6.026  14.369  0.00  0.00    +0.000 A 
ATOM     15  C   UNL     1       5.948   4.729  14.584  0.00  0.00    +0.000 A 
ATOM     16  C   UNL     1       5.713   4.103  15.806  0.00  0.00    +0.000 A 
ATOM     17  C   UNL     1       5.018   4.777  16.819  0.00  0.00    +0.000 A 
ENDROOT
BRANCH   1  18
ATOM     18  C   UNL     1       7.259   4.445  18.531  0.00  0.00    +0.000 C 
BRANCH  18  19
ATOM     19  S   UNL     1       7.711   5.966  19.418  0.00  0.00    +0.000 S 
BRANCH  19  21
ATOM     20  N   UNL     1       7.700   7.743  17.188  0.00  0.00    +0.000 NA
ATOM     21  C   UNL     1       7.729   7.009  18.089  0.00  0.00    +0.000 C 
ENDBRANCH  19  21
ENDBRANCH  18  19
ENDBRANCH   1  18
TORSDOF 3
ENDMDL
MODEL 7
REMARK VINA RESULT:      -6.1      6.621      8.402
REMARK  Name = 
REMARK  3 active torsions:
REMARK  status: ('A' for Active; 'I' for Inactive)
REMARK    1  A    between atoms: C_2  and  S_3
REMARK    2  A    between atoms: S_3  and  C_4
REMARK    3  A    between atoms: C_4  and  C_5
REMARK                            x       y       z     vdW  Elec       q    Type
REMARK                         _______ _______ _______ _____ _____    ______ ____
ROOT
ATOM      1  C   UNL     1      -0.632  13.216  20.289  0.00  0.00    +0.000 C 
ATOM      2  O   UNL     1      -1.146  14.106  19.607  0.00  0.00    +0.000 OA
ATOM      3  N   UNL     1      -0.846  11.845  20.050  0.00  0.00    +0.000 N 
ATOM      4  C   UNL     1      -1.701  11.381  18.995  0.00  0.00    +0.000 A 
ATOM      5  C   UNL     1      -2.986  11.949  18.883  0.00  0.00    +0.000 A 
ATOM      6  C   UNL     1      -3.904  11.502  17.928  0.00  0.00    +0.000 A 
ATOM      7  C   UNL     1      -3.548  10.493  17.048  0.00  0.00    +0.000 A 
ATOM      8  C   UNL     1      -2.280   9.925  17.132  0.00  0.00    +0.000 A 
ATOM      9  C   UNL     1      -1.341  10.349  18.098  0.00  0.00    +0.000 A 
ATOM     10  C   UNL     1       0.001   9.646  18.032  0.00  0.00    +0.000 C 
ATOM     11  C   UNL     1       1.122  10.144  18.937  0.00  0.00    +0.000 C 
ATOM     12  C   UNL     1       0.713  10.000  20.373  0.00  0.00    +0.000 A 
ATOM     13  C   UNL     1       1.286   9.038  21.209  0.00  0.00    +0.000 A 
ATOM     14  C   UNL     1       0.864   8.914  22.533  0.00  0.00    +0.000 A 
ATOM     15  C   UNL     1      -0.137   9.747  23.032  0.00  0.00    +0.000 A 
ATOM     16  C   UNL     1      -0.716  10.706  22.204  0.00  0.00    +0.000 A 
ATOM     17  C   UNL     1      -0.292  10.837  20.875  0.00  0.00    +0.000 A 
ENDROOT
BRANCH   1  18
ATOM     18  C   UNL     1       0.387  13.545  21.393  0.00  0.00    +0.000 C 
BRANCH  18  19
ATOM     19  S   UNL     1       1.653  14.742  20.874  0.00  0.00    +0.000 S 
BRANCH  19  21
ATOM     20  N   UNL     1       2.772  13.273  18.701  0.00  0.00    +0.000 NA
ATOM     21  C   UNL     1       2.299  13.851  19.592  0.00  0.00    +0.000 C 
ENDBRANCH  19  21
ENDBRANCH  18  19
ENDBRANCH   1  18
TORSDOF 3
ENDMDL
MODEL 8
REMARK VINA RESULT:      -6.0      2.850      4.277
REMARK  Name = 
REMARK  3 active torsions:
REMARK  status: ('A' for Active; 'I' for Inactive)
REMARK    1  A    between atoms: C_2  and  S_3
REMARK    2  A    between atoms: S_3  and  C_4
REMARK    3  A    between atoms: C_4  and  C_5
REMARK                            x       y       z     vdW  Elec       q    Type
REMARK                         _______ _______ _______ _____ _____    ______ ____
ROOT
ATOM      1  C   UNL     1       2.506   6.740  19.277  0.00  0.00    +0.000 C 
ATOM      2  O   UNL     1       1.584   6.975  20.061  0.00  0.00    +0.000 OA
ATOM      3  N   UNL     1       3.057   5.457  19.100  0.00  0.00    +0.000 N 
ATOM      4  C   UNL     1       2.591   4.320  19.842  0.00  0.00    +0.000 A 
ATOM      5  C   UNL     1       2.466   4.447  21.241  0.00  0.00    +0.000 A 
ATOM      6  C   UNL     1       2.088   3.366  22.043  0.00  0.00    +0.000 A 
ATOM      7  C   UNL     1       1.803   2.141  21.461  0.00  0.00    +0.000 A 
ATOM      8  C   UNL     1       1.908   1.996  20.081  0.00  0.00    +0.000 A 
ATOM      9  C   UNL     1       2.304   3.068  19.252  0.00  0.00    +0.000 A 
ATOM     10  C   UNL     1       2.339   2.748  17.769  0.00  0.00    +0.000 C 
ATOM     11  C   UNL     1       2.608   3.885  16.791  0.00  0.00    +0.000 C 
ATOM     12  C   UNL     1       3.960   4.474  17.062  0.00  0.00    +0.000 A 
ATOM     13  C   UNL     1       5.036   4.278  16.191  0.00  0.00    +0.000 A 
ATOM     14  C   UNL     1       6.288   4.820  16.486  0.00  0.00    +0.000 A 
ATOM     15  C   UNL     1       6.477   5.556  17.654  0.00  0.00    +0.000 A 
ATOM     16  C   UNL     1       5.411   5.752  18.530  0.00  0.00    +0.000 A 
ATOM     17  C   UNL     1       4.151   5.214  18.235  0.00  0.00    +0.000 A 
ENDROOT
BRANCH   1  18
ATOM     18  C   UNL     1       3.049   7.829  18.335  0.00  0.00    +0.000 C 
BRANCH  18  19
ATOM     19  S   UNL     1       1.745   8.842  17.575  0.00  0.00    +0.000 S 
BRANCH  19  21
ATOM     20  N   UNL     1       1.072  10.404  19.864  0.00  0.00    +0.000 NA
ATOM     21  C   UNL     1       1.368   9.783  18.927  0.00  0.00    +0.000 C 
ENDBRANCH  19  21
ENDBRANCH  18  19
ENDBRANCH   1  18
TORSDOF 3
ENDMDL
MODEL 9
REMARK VINA RESULT:      -6.0      6.601      8.499
REMARK  Name = 
REMARK  3 active torsions:
REMARK  status: ('A' for Active; 'I' for Inactive)
REMARK    1  A    between atoms: C_2  and  S_3
REMARK    2  A    between atoms: S_3  and  C_4
REMARK    3  A    between atoms: C_4  and  C_5
REMARK                            x       y       z     vdW  Elec       q    Type
REMARK                         _______ _______ _______ _____ _____    ______ ____
ROOT
ATOM      1  C   UNL     1      -0.604  13.190  20.200  0.00  0.00    +0.000 C 
ATOM      2  O   UNL     1      -1.147  14.098  19.568  0.00  0.00    +0.000 OA
ATOM      3  N   UNL     1      -0.876  11.827  19.975  0.00  0.00    +0.000 N 
ATOM      4  C   UNL     1      -1.830  11.393  18.995  0.00  0.00    +0.000 A 
ATOM      5  C   UNL     1      -3.104  11.999  18.995  0.00  0.00    +0.000 A 
ATOM      6  C   UNL     1      -4.111  11.584  18.119  0.00  0.00    +0.000 A 
ATOM      7  C   UNL     1      -3.860  10.570  17.208  0.00  0.00    +0.000 A 
ATOM      8  C   UNL     1      -2.607   9.966  17.182  0.00  0.00    +0.000 A 
ATOM      9  C   UNL     1      -1.578  10.357  18.067  0.00  0.00    +0.000 A 
ATOM     10  C   UNL     1      -0.266   9.617  17.885  0.00  0.00    +0.000 C 
ATOM     11  C   UNL     1       0.941  10.078  18.693  0.00  0.00    +0.000 C 
ATOM     12  C   UNL     1       0.651   9.937  20.158  0.00  0.00    +0.000 A 
ATOM     13  C   UNL     1       1.264   8.953  20.938  0.00  0.00    +0.000 A 
ATOM     14  C   UNL     1       0.953   8.834  22.294  0.00  0.00    +0.000 A 
ATOM     15  C   UNL     1       0.023   9.691  22.878  0.00  0.00    +0.000 A 
ATOM     16  C   UNL     1      -0.597  10.671  22.107  0.00  0.00    +0.000 A 
ATOM     17  C   UNL     1      -0.283  10.798  20.746  0.00  0.00    +0.000 A 
ENDROOT
BRANCH   1  18
ATOM     18  C   UNL     1       0.515  13.483  21.215  0.00  0.00    +0.000 C 
BRANCH  18  19
ATOM     19  S   UNL     1       2.134  13.774  20.442  0.00  0.00    +0.000 S 
BRANCH  19  21
ATOM     20  N   UNL     1       3.470  14.957  22.666  0.00  0.00    +0.000 NA
ATOM     21  C   UNL     1       2.904  14.468  21.776  0.00  0.00    +0.000 C 
ENDBRANCH  19  21
ENDBRANCH  18  19
ENDBRANCH   1  18
TORSDOF 3
ENDMDL
